* NGSPICE file created from riscv_top.ext - technology: sky130A

.subckt sky130_fd_sc_hd__nor2_1 VPB VNB VGND VPWR A B Y
X0 VPWR A a_109_297# VPB sky130_fd_pr__pfet_01v8_hvt ad=0.26 pd=2.52 as=0.105 ps=1.21 w=1 l=0.15
X1 VGND A Y VNB sky130_fd_pr__nfet_01v8 ad=0.169 pd=1.82 as=0.08775 ps=0.92 w=0.65 l=0.15
X2 a_109_297# B Y VPB sky130_fd_pr__pfet_01v8_hvt ad=0.105 pd=1.21 as=0.26 ps=2.52 w=1 l=0.15
X3 Y B VGND VNB sky130_fd_pr__nfet_01v8 ad=0.08775 pd=0.92 as=0.169 ps=1.82 w=0.65 l=0.15
.ends

.subckt sky130_fd_sc_hd__o221ai_1 VPB VNB VGND VPWR A1 A2 Y B2 C1 B1
X0 a_109_47# B1 a_213_123# VNB sky130_fd_pr__nfet_01v8 ad=0.08775 pd=0.92 as=0.1652 ps=1.82 w=0.65 l=0.15
X1 Y B2 a_295_297# VPB sky130_fd_pr__pfet_01v8_hvt ad=0.225 pd=1.45 as=0.12 ps=1.24 w=1 l=0.15
X2 VPWR A1 a_493_297# VPB sky130_fd_pr__pfet_01v8_hvt ad=0.26 pd=2.52 as=0.105 ps=1.21 w=1 l=0.15
X3 a_213_123# B2 a_109_47# VNB sky130_fd_pr__nfet_01v8 ad=0.117 pd=1.01 as=0.08775 ps=0.92 w=0.65 l=0.15
X4 a_295_297# B1 VPWR VPB sky130_fd_pr__pfet_01v8_hvt ad=0.12 pd=1.24 as=0.38 ps=1.76 w=1 l=0.15
X5 a_493_297# A2 Y VPB sky130_fd_pr__pfet_01v8_hvt ad=0.105 pd=1.21 as=0.225 ps=1.45 w=1 l=0.15
X6 VPWR C1 Y VPB sky130_fd_pr__pfet_01v8_hvt ad=0.38 pd=1.76 as=0.28 ps=2.56 w=1 l=0.15
X7 VGND A2 a_213_123# VNB sky130_fd_pr__nfet_01v8 ad=0.08775 pd=0.92 as=0.117 ps=1.01 w=0.65 l=0.15
X8 a_213_123# A1 VGND VNB sky130_fd_pr__nfet_01v8 ad=0.169 pd=1.82 as=0.08775 ps=0.92 w=0.65 l=0.15
X9 a_109_47# C1 Y VNB sky130_fd_pr__nfet_01v8 ad=0.1654 pd=1.82 as=0.169 ps=1.82 w=0.65 l=0.15
.ends

.subckt sky130_fd_sc_hd__nand2_1 VPB VNB VGND VPWR A Y B
X0 VPWR A Y VPB sky130_fd_pr__pfet_01v8_hvt ad=0.26 pd=2.52 as=0.135 ps=1.27 w=1 l=0.15
X1 Y A a_113_47# VNB sky130_fd_pr__nfet_01v8 ad=0.169 pd=1.82 as=0.08775 ps=0.92 w=0.65 l=0.15
X2 a_113_47# B VGND VNB sky130_fd_pr__nfet_01v8 ad=0.08775 pd=0.92 as=0.169 ps=1.82 w=0.65 l=0.15
X3 Y B VPWR VPB sky130_fd_pr__pfet_01v8_hvt ad=0.135 pd=1.27 as=0.26 ps=2.52 w=1 l=0.15
.ends

.subckt sky130_fd_sc_hd__clkbuf_8 X A VPB VNB VGND VPWR
X0 VPWR A a_110_47# VPB sky130_fd_pr__pfet_01v8_hvt ad=0.14 pd=1.28 as=0.14 ps=1.28 w=1 l=0.15
X1 VPWR a_110_47# X VPB sky130_fd_pr__pfet_01v8_hvt ad=0.14 pd=1.28 as=0.14 ps=1.28 w=1 l=0.15
X2 X a_110_47# VPWR VPB sky130_fd_pr__pfet_01v8_hvt ad=0.14 pd=1.28 as=0.14 ps=1.28 w=1 l=0.15
X3 a_110_47# A VPWR VPB sky130_fd_pr__pfet_01v8_hvt ad=0.14 pd=1.28 as=0.265 ps=2.53 w=1 l=0.15
X4 X a_110_47# VGND VNB sky130_fd_pr__nfet_01v8 ad=0.0588 pd=0.7 as=0.0588 ps=0.7 w=0.42 l=0.15
X5 X a_110_47# VPWR VPB sky130_fd_pr__pfet_01v8_hvt ad=0.14 pd=1.28 as=0.14 ps=1.28 w=1 l=0.15
X6 VGND a_110_47# X VNB sky130_fd_pr__nfet_01v8 ad=0.0588 pd=0.7 as=0.0588 ps=0.7 w=0.42 l=0.15
X7 VPWR a_110_47# X VPB sky130_fd_pr__pfet_01v8_hvt ad=0.14 pd=1.28 as=0.14 ps=1.28 w=1 l=0.15
X8 VGND A a_110_47# VNB sky130_fd_pr__nfet_01v8 ad=0.0588 pd=0.7 as=0.0588 ps=0.7 w=0.42 l=0.15
X9 VGND a_110_47# X VNB sky130_fd_pr__nfet_01v8 ad=0.1134 pd=1.38 as=0.0588 ps=0.7 w=0.42 l=0.15
X10 a_110_47# A VGND VNB sky130_fd_pr__nfet_01v8 ad=0.0588 pd=0.7 as=0.1113 ps=1.37 w=0.42 l=0.15
X11 VPWR a_110_47# X VPB sky130_fd_pr__pfet_01v8_hvt ad=0.14 pd=1.28 as=0.14 ps=1.28 w=1 l=0.15
X12 X a_110_47# VPWR VPB sky130_fd_pr__pfet_01v8_hvt ad=0.14 pd=1.28 as=0.14 ps=1.28 w=1 l=0.15
X13 VGND a_110_47# X VNB sky130_fd_pr__nfet_01v8 ad=0.0588 pd=0.7 as=0.0588 ps=0.7 w=0.42 l=0.15
X14 VGND a_110_47# X VNB sky130_fd_pr__nfet_01v8 ad=0.0588 pd=0.7 as=0.0588 ps=0.7 w=0.42 l=0.15
X15 X a_110_47# VPWR VPB sky130_fd_pr__pfet_01v8_hvt ad=0.14 pd=1.28 as=0.14 ps=1.28 w=1 l=0.15
X16 X a_110_47# VGND VNB sky130_fd_pr__nfet_01v8 ad=0.0588 pd=0.7 as=0.0588 ps=0.7 w=0.42 l=0.15
X17 VPWR a_110_47# X VPB sky130_fd_pr__pfet_01v8_hvt ad=0.265 pd=2.53 as=0.14 ps=1.28 w=1 l=0.15
X18 X a_110_47# VGND VNB sky130_fd_pr__nfet_01v8 ad=0.0588 pd=0.7 as=0.0588 ps=0.7 w=0.42 l=0.15
X19 X a_110_47# VGND VNB sky130_fd_pr__nfet_01v8 ad=0.0588 pd=0.7 as=0.0588 ps=0.7 w=0.42 l=0.15
.ends

.subckt sky130_fd_sc_hd__nand3_1 VPB VNB VGND VPWR A B Y C
X0 VPWR B Y VPB sky130_fd_pr__pfet_01v8_hvt ad=0.165 pd=1.33 as=0.135 ps=1.27 w=1 l=0.15
X1 Y A VPWR VPB sky130_fd_pr__pfet_01v8_hvt ad=0.26 pd=2.52 as=0.165 ps=1.33 w=1 l=0.15
X2 a_193_47# B a_109_47# VNB sky130_fd_pr__nfet_01v8 ad=0.10725 pd=0.98 as=0.08775 ps=0.92 w=0.65 l=0.15
X3 Y A a_193_47# VNB sky130_fd_pr__nfet_01v8 ad=0.169 pd=1.82 as=0.10725 ps=0.98 w=0.65 l=0.15
X4 Y C VPWR VPB sky130_fd_pr__pfet_01v8_hvt ad=0.135 pd=1.27 as=0.26 ps=2.52 w=1 l=0.15
X5 a_109_47# C VGND VNB sky130_fd_pr__nfet_01v8 ad=0.08775 pd=0.92 as=0.169 ps=1.82 w=0.65 l=0.15
.ends

.subckt sky130_fd_sc_hd__dfxtp_4 VGND VPWR VNB VPB Q D CLK
X0 Q a_1062_300# VPWR VPB sky130_fd_pr__pfet_01v8_hvt ad=0.135 pd=1.27 as=0.1425 ps=1.285 w=1 l=0.15
X1 a_1020_47# a_27_47# a_891_413# VNB sky130_fd_pr__special_nfet_01v8 ad=0.066 pd=0.745 as=0.0657 ps=0.725 w=0.36 l=0.15
X2 a_572_47# a_193_47# a_475_413# VNB sky130_fd_pr__special_nfet_01v8 ad=0.0687 pd=0.76 as=0.0594 ps=0.69 w=0.36 l=0.15
X3 VPWR a_1062_300# a_975_413# VPB sky130_fd_pr__pfet_01v8_hvt ad=0.1218 pd=1.42 as=0.09135 ps=0.855 w=0.42 l=0.15
X4 a_634_183# a_475_413# VGND VNB sky130_fd_pr__nfet_01v8 ad=0.0989 pd=0.995 as=0.1493 ps=1.22 w=0.64 l=0.15
X5 VPWR CLK a_27_47# VPB sky130_fd_pr__pfet_01v8_hvt ad=0.0864 pd=0.91 as=0.1664 ps=1.8 w=0.64 l=0.15
X6 a_381_47# D VPWR VPB sky130_fd_pr__pfet_01v8_hvt ad=0.0672 pd=0.74 as=0.1092 ps=1.36 w=0.42 l=0.15
X7 a_475_413# a_27_47# a_381_47# VNB sky130_fd_pr__special_nfet_01v8 ad=0.0594 pd=0.69 as=0.066 ps=0.745 w=0.36 l=0.15
X8 VGND a_1062_300# a_1020_47# VNB sky130_fd_pr__nfet_01v8 ad=0.1197 pd=1.41 as=0.066 ps=0.745 w=0.42 l=0.15
X9 VPWR a_634_183# a_568_413# VPB sky130_fd_pr__pfet_01v8_hvt ad=0.178875 pd=1.26 as=0.0693 ps=0.75 w=0.42 l=0.15
X10 Q a_1062_300# VGND VNB sky130_fd_pr__nfet_01v8 ad=0.08775 pd=0.92 as=0.092625 ps=0.935 w=0.65 l=0.15
X11 a_568_413# a_27_47# a_475_413# VPB sky130_fd_pr__pfet_01v8_hvt ad=0.0693 pd=0.75 as=0.06615 ps=0.735 w=0.42 l=0.15
X12 a_634_183# a_475_413# VPWR VPB sky130_fd_pr__pfet_01v8_hvt ad=0.1095 pd=1.075 as=0.178875 ps=1.26 w=0.75 l=0.15
X13 a_975_413# a_193_47# a_891_413# VPB sky130_fd_pr__pfet_01v8_hvt ad=0.09135 pd=0.855 as=0.0567 ps=0.69 w=0.42 l=0.15
X14 a_193_47# a_27_47# VGND VNB sky130_fd_pr__nfet_01v8 ad=0.1092 pd=1.36 as=0.0567 ps=0.69 w=0.42 l=0.15
X15 a_891_413# a_27_47# a_634_183# VPB sky130_fd_pr__pfet_01v8_hvt ad=0.0567 pd=0.69 as=0.1095 ps=1.075 w=0.42 l=0.15
X16 Q a_1062_300# VGND VNB sky130_fd_pr__nfet_01v8 ad=0.08775 pd=0.92 as=0.105625 ps=0.975 w=0.65 l=0.15
X17 VGND a_891_413# a_1062_300# VNB sky130_fd_pr__nfet_01v8 ad=0.105625 pd=0.975 as=0.169 ps=1.82 w=0.65 l=0.15
X18 VPWR a_1062_300# Q VPB sky130_fd_pr__pfet_01v8_hvt ad=0.1425 pd=1.285 as=0.135 ps=1.27 w=1 l=0.15
X19 VGND a_1062_300# Q VNB sky130_fd_pr__nfet_01v8 ad=0.18525 pd=1.87 as=0.08775 ps=0.92 w=0.65 l=0.15
X20 Q a_1062_300# VPWR VPB sky130_fd_pr__pfet_01v8_hvt ad=0.135 pd=1.27 as=0.1625 ps=1.325 w=1 l=0.15
X21 a_193_47# a_27_47# VPWR VPB sky130_fd_pr__pfet_01v8_hvt ad=0.1664 pd=1.8 as=0.0864 ps=0.91 w=0.64 l=0.15
X22 VGND a_1062_300# Q VNB sky130_fd_pr__nfet_01v8 ad=0.092625 pd=0.935 as=0.08775 ps=0.92 w=0.65 l=0.15
X23 a_381_47# D VGND VNB sky130_fd_pr__nfet_01v8 ad=0.066 pd=0.745 as=0.1092 ps=1.36 w=0.42 l=0.15
X24 VPWR a_891_413# a_1062_300# VPB sky130_fd_pr__pfet_01v8_hvt ad=0.1625 pd=1.325 as=0.28 ps=2.56 w=1 l=0.15
X25 a_475_413# a_193_47# a_381_47# VPB sky130_fd_pr__pfet_01v8_hvt ad=0.06615 pd=0.735 as=0.0672 ps=0.74 w=0.42 l=0.15
X26 a_891_413# a_193_47# a_634_183# VNB sky130_fd_pr__special_nfet_01v8 ad=0.0657 pd=0.725 as=0.0989 ps=0.995 w=0.36 l=0.15
X27 VGND a_634_183# a_572_47# VNB sky130_fd_pr__nfet_01v8 ad=0.1493 pd=1.22 as=0.0687 ps=0.76 w=0.42 l=0.15
X28 VGND CLK a_27_47# VNB sky130_fd_pr__nfet_01v8 ad=0.0567 pd=0.69 as=0.1092 ps=1.36 w=0.42 l=0.15
X29 VPWR a_1062_300# Q VPB sky130_fd_pr__pfet_01v8_hvt ad=0.28 pd=2.56 as=0.135 ps=1.27 w=1 l=0.15
.ends

.subckt sky130_fd_sc_hd__dfxtp_1 Q CLK D VPB VNB VPWR VGND
X0 Q a_1059_315# VGND VNB sky130_fd_pr__nfet_01v8 ad=0.169 pd=1.82 as=0.08775 ps=0.92 w=0.65 l=0.15
X1 a_891_413# a_193_47# a_634_159# VNB sky130_fd_pr__special_nfet_01v8 ad=0.0684 pd=0.74 as=0.0989 ps=0.995 w=0.36 l=0.15
X2 a_561_413# a_27_47# a_466_413# VPB sky130_fd_pr__pfet_01v8_hvt ad=0.07665 pd=0.785 as=0.06825 ps=0.745 w=0.42 l=0.15
X3 VPWR CLK a_27_47# VPB sky130_fd_pr__pfet_01v8_hvt ad=0.0864 pd=0.91 as=0.1664 ps=1.8 w=0.64 l=0.15
X4 Q a_1059_315# VPWR VPB sky130_fd_pr__pfet_01v8_hvt ad=0.26 pd=2.52 as=0.135 ps=1.27 w=1 l=0.15
X5 a_381_47# D VPWR VPB sky130_fd_pr__pfet_01v8_hvt ad=0.05775 pd=0.695 as=0.1092 ps=1.36 w=0.42 l=0.15
X6 VGND a_634_159# a_592_47# VNB sky130_fd_pr__nfet_01v8 ad=0.12095 pd=1.085 as=0.0696 ps=0.765 w=0.42 l=0.15
X7 VPWR a_891_413# a_1059_315# VPB sky130_fd_pr__pfet_01v8_hvt ad=0.135 pd=1.27 as=0.27 ps=2.54 w=1 l=0.15
X8 a_466_413# a_193_47# a_381_47# VPB sky130_fd_pr__pfet_01v8_hvt ad=0.06825 pd=0.745 as=0.05775 ps=0.695 w=0.42 l=0.15
X9 VPWR a_634_159# a_561_413# VPB sky130_fd_pr__pfet_01v8_hvt ad=0.178875 pd=1.26 as=0.07665 ps=0.785 w=0.42 l=0.15
X10 a_634_159# a_466_413# VGND VNB sky130_fd_pr__nfet_01v8 ad=0.0989 pd=0.995 as=0.12095 ps=1.085 w=0.64 l=0.15
X11 a_634_159# a_466_413# VPWR VPB sky130_fd_pr__pfet_01v8_hvt ad=0.1095 pd=1.075 as=0.178875 ps=1.26 w=0.75 l=0.15
X12 a_975_413# a_193_47# a_891_413# VPB sky130_fd_pr__pfet_01v8_hvt ad=0.0882 pd=0.84 as=0.0567 ps=0.69 w=0.42 l=0.15
X13 VGND a_1059_315# a_1017_47# VNB sky130_fd_pr__nfet_01v8 ad=0.1092 pd=1.36 as=0.066 ps=0.745 w=0.42 l=0.15
X14 a_193_47# a_27_47# VGND VNB sky130_fd_pr__nfet_01v8 ad=0.1092 pd=1.36 as=0.0567 ps=0.69 w=0.42 l=0.15
X15 a_891_413# a_27_47# a_634_159# VPB sky130_fd_pr__pfet_01v8_hvt ad=0.0567 pd=0.69 as=0.1095 ps=1.075 w=0.42 l=0.15
X16 a_592_47# a_193_47# a_466_413# VNB sky130_fd_pr__special_nfet_01v8 ad=0.0696 pd=0.765 as=0.0621 ps=0.705 w=0.36 l=0.15
X17 VPWR a_1059_315# a_975_413# VPB sky130_fd_pr__pfet_01v8_hvt ad=0.1113 pd=1.37 as=0.0882 ps=0.84 w=0.42 l=0.15
X18 a_1017_47# a_27_47# a_891_413# VNB sky130_fd_pr__special_nfet_01v8 ad=0.066 pd=0.745 as=0.0684 ps=0.74 w=0.36 l=0.15
X19 a_193_47# a_27_47# VPWR VPB sky130_fd_pr__pfet_01v8_hvt ad=0.1664 pd=1.8 as=0.0864 ps=0.91 w=0.64 l=0.15
X20 a_466_413# a_27_47# a_381_47# VNB sky130_fd_pr__special_nfet_01v8 ad=0.0621 pd=0.705 as=0.0813 ps=0.83 w=0.36 l=0.15
X21 VGND a_891_413# a_1059_315# VNB sky130_fd_pr__nfet_01v8 ad=0.08775 pd=0.92 as=0.169 ps=1.82 w=0.65 l=0.15
X22 a_381_47# D VGND VNB sky130_fd_pr__nfet_01v8 ad=0.0813 pd=0.83 as=0.1092 ps=1.36 w=0.42 l=0.15
X23 VGND CLK a_27_47# VNB sky130_fd_pr__nfet_01v8 ad=0.0567 pd=0.69 as=0.1092 ps=1.36 w=0.42 l=0.15
.ends

.subckt sky130_fd_sc_hd__mux2i_1 VPB VNB VGND VPWR A0 Y A1 S
X0 a_27_297# S VPWR VPB sky130_fd_pr__pfet_01v8_hvt ad=0.26 pd=2.52 as=0.3 ps=1.6 w=1 l=0.15
X1 VGND S a_283_205# VNB sky130_fd_pr__nfet_01v8 ad=0.169 pd=1.82 as=0.169 ps=1.82 w=0.65 l=0.15
X2 a_204_297# A1 Y VPB sky130_fd_pr__pfet_01v8_hvt ad=0.1975 pd=1.395 as=0.1525 ps=1.305 w=1 l=0.15
X3 a_193_47# A1 Y VNB sky130_fd_pr__nfet_01v8 ad=0.182 pd=1.86 as=0.08775 ps=0.92 w=0.65 l=0.15
X4 Y A0 a_27_297# VPB sky130_fd_pr__pfet_01v8_hvt ad=0.1525 pd=1.305 as=0.28 ps=2.56 w=1 l=0.15
X5 VPWR a_283_205# a_204_297# VPB sky130_fd_pr__pfet_01v8_hvt ad=0.3 pd=1.6 as=0.1975 ps=1.395 w=1 l=0.15
X6 VPWR S a_283_205# VPB sky130_fd_pr__pfet_01v8_hvt ad=0.26 pd=2.52 as=0.29 ps=2.58 w=1 l=0.15
X7 VGND a_283_205# a_27_47# VNB sky130_fd_pr__nfet_01v8 ad=0.08775 pd=0.92 as=0.169 ps=1.82 w=0.65 l=0.15
X8 a_193_47# S VGND VNB sky130_fd_pr__nfet_01v8 ad=0.169 pd=1.82 as=0.08775 ps=0.92 w=0.65 l=0.15
X9 Y A0 a_27_47# VNB sky130_fd_pr__nfet_01v8 ad=0.08775 pd=0.92 as=0.169 ps=1.82 w=0.65 l=0.15
.ends

.subckt sky130_fd_sc_hd__a22o_1 VPWR VGND VPB VNB B1 A1 A2 X B2
X0 VPWR A2 a_109_297# VPB sky130_fd_pr__pfet_01v8_hvt ad=0.155 pd=1.31 as=0.16 ps=1.32 w=1 l=0.15
X1 a_27_297# B1 a_109_47# VNB sky130_fd_pr__nfet_01v8 ad=0.169 pd=1.82 as=0.07475 ps=0.88 w=0.65 l=0.15
X2 VGND A2 a_373_47# VNB sky130_fd_pr__nfet_01v8 ad=0.10075 pd=0.96 as=0.11375 ps=1 w=0.65 l=0.15
X3 X a_27_297# VPWR VPB sky130_fd_pr__pfet_01v8_hvt ad=0.26 pd=2.52 as=0.155 ps=1.31 w=1 l=0.15
X4 a_27_297# B1 a_109_297# VPB sky130_fd_pr__pfet_01v8_hvt ad=0.25285 pd=2.52 as=0.135 ps=1.27 w=1 l=0.15
X5 a_109_297# A1 VPWR VPB sky130_fd_pr__pfet_01v8_hvt ad=0.16 pd=1.32 as=0.2529 ps=2.52 w=1 l=0.15
X6 a_373_47# A1 a_27_297# VNB sky130_fd_pr__nfet_01v8 ad=0.11375 pd=1 as=0.169 ps=1.82 w=0.65 l=0.15
X7 X a_27_297# VGND VNB sky130_fd_pr__nfet_01v8 ad=0.169 pd=1.82 as=0.10075 ps=0.96 w=0.65 l=0.15
X8 a_109_297# B2 a_27_297# VPB sky130_fd_pr__pfet_01v8_hvt ad=0.135 pd=1.27 as=0.26 ps=2.52 w=1 l=0.15
X9 a_109_47# B2 VGND VNB sky130_fd_pr__nfet_01v8 ad=0.07475 pd=0.88 as=0.169 ps=1.82 w=0.65 l=0.15
.ends

.subckt sky130_fd_sc_hd__o21ai_0 VNB VPB VGND VPWR B1 A1 Y A2
X0 a_120_369# A1 VPWR VPB sky130_fd_pr__pfet_01v8_hvt ad=0.0768 pd=0.88 as=0.1696 ps=1.81 w=0.64 l=0.15
X1 VGND A1 a_32_47# VNB sky130_fd_pr__nfet_01v8 ad=0.0588 pd=0.7 as=0.1113 ps=1.37 w=0.42 l=0.15
X2 Y A2 a_120_369# VPB sky130_fd_pr__pfet_01v8_hvt ad=0.0896 pd=0.92 as=0.0768 ps=0.88 w=0.64 l=0.15
X3 a_32_47# A2 VGND VNB sky130_fd_pr__nfet_01v8 ad=0.0588 pd=0.7 as=0.0588 ps=0.7 w=0.42 l=0.15
X4 VPWR B1 Y VPB sky130_fd_pr__pfet_01v8_hvt ad=0.1824 pd=1.85 as=0.0896 ps=0.92 w=0.64 l=0.15
X5 Y B1 a_32_47# VNB sky130_fd_pr__nfet_01v8 ad=0.1113 pd=1.37 as=0.0588 ps=0.7 w=0.42 l=0.15
.ends

.subckt sky130_fd_sc_hd__a221oi_1 VGND VPWR VPB VNB Y B1 C1 A1 A2 B2
X0 a_465_47# A1 Y VNB sky130_fd_pr__nfet_01v8 ad=0.099125 pd=0.955 as=0.169 ps=1.82 w=0.65 l=0.15
X1 a_109_297# B1 a_193_297# VPB sky130_fd_pr__pfet_01v8_hvt ad=0.26 pd=2.52 as=0.135 ps=1.27 w=1 l=0.15
X2 a_193_297# B2 a_109_297# VPB sky130_fd_pr__pfet_01v8_hvt ad=0.135 pd=1.27 as=0.135 ps=1.27 w=1 l=0.15
X3 a_204_47# B2 VGND VNB sky130_fd_pr__nfet_01v8 ad=0.069875 pd=0.865 as=0.105625 ps=0.975 w=0.65 l=0.15
X4 VGND A2 a_465_47# VNB sky130_fd_pr__nfet_01v8 ad=0.19825 pd=1.91 as=0.099125 ps=0.955 w=0.65 l=0.15
X5 a_193_297# A1 VPWR VPB sky130_fd_pr__pfet_01v8_hvt ad=0.1525 pd=1.305 as=0.26 ps=2.52 w=1 l=0.15
X6 Y B1 a_204_47# VNB sky130_fd_pr__nfet_01v8 ad=0.169 pd=1.82 as=0.069875 ps=0.865 w=0.65 l=0.15
X7 VPWR A2 a_193_297# VPB sky130_fd_pr__pfet_01v8_hvt ad=0.305 pd=2.61 as=0.1525 ps=1.305 w=1 l=0.15
X8 a_109_297# C1 Y VPB sky130_fd_pr__pfet_01v8_hvt ad=0.135 pd=1.27 as=0.26 ps=2.52 w=1 l=0.15
X9 VGND C1 Y VNB sky130_fd_pr__nfet_01v8 ad=0.105625 pd=0.975 as=0.169 ps=1.82 w=0.65 l=0.15
.ends

.subckt sky130_fd_sc_hd__mux4_2 VNB VPB VGND VPWR S0 A2 A3 S1 A1 A0 X
X0 a_600_345# S1 VPWR VPB sky130_fd_pr__pfet_01v8_hvt ad=0.1664 pd=1.8 as=0.0864 ps=0.91 w=0.64 l=0.15
X1 a_788_316# S1 a_288_47# VNB sky130_fd_pr__nfet_01v8 ad=0.05775 pd=0.695 as=0.1092 ps=1.36 w=0.42 l=0.15
X2 VPWR A3 a_372_413# VPB sky130_fd_pr__pfet_01v8_hvt ad=0.0864 pd=0.91 as=0.1645 ps=1.33 w=0.64 l=0.15
X3 a_872_316# a_600_345# a_788_316# VNB sky130_fd_pr__nfet_01v8 ad=0.1092 pd=1.36 as=0.05775 ps=0.695 w=0.42 l=0.15
X4 VPWR S0 a_27_47# VPB sky130_fd_pr__pfet_01v8_hvt ad=0.0864 pd=0.91 as=0.1664 ps=1.8 w=0.64 l=0.15
X5 a_1279_413# S0 a_872_316# VPB sky130_fd_pr__pfet_01v8_hvt ad=0.10535 pd=0.995 as=0.0567 ps=0.69 w=0.42 l=0.15
X6 VGND a_788_316# X VNB sky130_fd_pr__nfet_01v8 ad=0.221 pd=1.98 as=0.08775 ps=0.92 w=0.65 l=0.15
X7 a_1060_369# A1 VPWR VPB sky130_fd_pr__pfet_01v8_hvt ad=0.13775 pd=1.165 as=0.1664 ps=1.8 w=0.64 l=0.15
X8 a_872_316# a_27_47# a_1060_369# VPB sky130_fd_pr__pfet_01v8_hvt ad=0.0567 pd=0.69 as=0.13775 ps=1.165 w=0.42 l=0.15
X9 a_193_47# A2 VGND VNB sky130_fd_pr__nfet_01v8 ad=0.066 pd=0.745 as=0.0567 ps=0.69 w=0.42 l=0.15
X10 a_1064_47# A1 VGND VNB sky130_fd_pr__nfet_01v8 ad=0.0786 pd=0.805 as=0.1092 ps=1.36 w=0.42 l=0.15
X11 a_1281_47# a_27_47# a_872_316# VNB sky130_fd_pr__special_nfet_01v8 ad=0.066 pd=0.745 as=0.072 ps=0.76 w=0.36 l=0.15
X12 a_872_316# S1 a_788_316# VPB sky130_fd_pr__pfet_01v8_hvt ad=0.1404 pd=1.6 as=0.0729 ps=0.81 w=0.54 l=0.15
X13 a_872_316# S0 a_1064_47# VNB sky130_fd_pr__special_nfet_01v8 ad=0.072 pd=0.76 as=0.0786 ps=0.805 w=0.36 l=0.15
X14 X a_788_316# VGND VNB sky130_fd_pr__nfet_01v8 ad=0.08775 pd=0.92 as=0.10675 ps=1.005 w=0.65 l=0.15
X15 a_788_316# a_600_345# a_288_47# VPB sky130_fd_pr__pfet_01v8_hvt ad=0.0729 pd=0.81 as=0.1404 ps=1.6 w=0.54 l=0.15
X16 a_372_413# a_27_47# a_288_47# VPB sky130_fd_pr__pfet_01v8_hvt ad=0.1645 pd=1.33 as=0.0567 ps=0.69 w=0.42 l=0.15
X17 VGND A3 a_397_47# VNB sky130_fd_pr__nfet_01v8 ad=0.0819 pd=0.81 as=0.06705 ps=0.75 w=0.42 l=0.15
X18 a_600_345# S1 VGND VNB sky130_fd_pr__nfet_01v8 ad=0.1134 pd=1.38 as=0.0819 ps=0.81 w=0.42 l=0.15
X19 a_193_369# A2 VPWR VPB sky130_fd_pr__pfet_01v8_hvt ad=0.09575 pd=0.965 as=0.0864 ps=0.91 w=0.64 l=0.15
X20 VPWR a_788_316# X VPB sky130_fd_pr__pfet_01v8_hvt ad=0.34 pd=2.68 as=0.135 ps=1.27 w=1 l=0.15
X21 a_288_47# S0 a_193_369# VPB sky130_fd_pr__pfet_01v8_hvt ad=0.0567 pd=0.69 as=0.09575 ps=0.965 w=0.42 l=0.15
X22 VGND A0 a_1281_47# VNB sky130_fd_pr__nfet_01v8 ad=0.10675 pd=1.005 as=0.066 ps=0.745 w=0.42 l=0.15
X23 a_397_47# S0 a_288_47# VNB sky130_fd_pr__special_nfet_01v8 ad=0.06705 pd=0.75 as=0.0711 ps=0.755 w=0.36 l=0.15
X24 X a_788_316# VPWR VPB sky130_fd_pr__pfet_01v8_hvt ad=0.135 pd=1.27 as=0.154 ps=1.335 w=1 l=0.15
X25 a_288_47# a_27_47# a_193_47# VNB sky130_fd_pr__special_nfet_01v8 ad=0.0711 pd=0.755 as=0.066 ps=0.745 w=0.36 l=0.15
X26 VGND S0 a_27_47# VNB sky130_fd_pr__nfet_01v8 ad=0.0567 pd=0.69 as=0.1092 ps=1.36 w=0.42 l=0.15
X27 VPWR A0 a_1279_413# VPB sky130_fd_pr__pfet_01v8_hvt ad=0.154 pd=1.335 as=0.10535 ps=0.995 w=0.64 l=0.15
.ends

.subckt sky130_fd_sc_hd__a22oi_1 VPWR VGND VPB VNB B2 B1 Y A1 A2
X0 Y B1 a_109_47# VNB sky130_fd_pr__nfet_01v8 ad=0.169 pd=1.82 as=0.07475 ps=0.88 w=0.65 l=0.15
X1 Y B1 a_109_297# VPB sky130_fd_pr__pfet_01v8_hvt ad=0.26 pd=2.52 as=0.135 ps=1.27 w=1 l=0.15
X2 VPWR A2 a_109_297# VPB sky130_fd_pr__pfet_01v8_hvt ad=0.3 pd=2.6 as=0.135 ps=1.27 w=1 l=0.15
X3 a_109_297# A1 VPWR VPB sky130_fd_pr__pfet_01v8_hvt ad=0.135 pd=1.27 as=0.26 ps=2.52 w=1 l=0.15
X4 a_381_47# A1 Y VNB sky130_fd_pr__nfet_01v8 ad=0.06825 pd=0.86 as=0.169 ps=1.82 w=0.65 l=0.15
X5 a_109_297# B2 Y VPB sky130_fd_pr__pfet_01v8_hvt ad=0.135 pd=1.27 as=0.26 ps=2.52 w=1 l=0.15
X6 a_109_47# B2 VGND VNB sky130_fd_pr__nfet_01v8 ad=0.07475 pd=0.88 as=0.169 ps=1.82 w=0.65 l=0.15
X7 VGND A2 a_381_47# VNB sky130_fd_pr__nfet_01v8 ad=0.234 pd=2.02 as=0.06825 ps=0.86 w=0.65 l=0.15
.ends

.subckt sky130_fd_sc_hd__a21oi_1 VPWR VGND VPB VNB A2 A1 B1 Y
X0 a_199_47# A1 Y VNB sky130_fd_pr__nfet_01v8 ad=0.095875 pd=0.945 as=0.091 ps=0.93 w=0.65 l=0.15
X1 a_113_297# A2 VPWR VPB sky130_fd_pr__pfet_01v8_hvt ad=0.265 pd=2.53 as=0.1475 ps=1.295 w=1 l=0.15
X2 Y B1 VGND VNB sky130_fd_pr__nfet_01v8 ad=0.091 pd=0.93 as=0.17225 ps=1.83 w=0.65 l=0.15
X3 VPWR A1 a_113_297# VPB sky130_fd_pr__pfet_01v8_hvt ad=0.1475 pd=1.295 as=0.14 ps=1.28 w=1 l=0.15
X4 a_113_297# B1 Y VPB sky130_fd_pr__pfet_01v8_hvt ad=0.14 pd=1.28 as=0.265 ps=2.53 w=1 l=0.15
X5 VGND A2 a_199_47# VNB sky130_fd_pr__nfet_01v8 ad=0.17225 pd=1.83 as=0.095875 ps=0.945 w=0.65 l=0.15
.ends

.subckt sky130_fd_sc_hd__o22ai_1 VPB VNB VGND VPWR A1 A2 B1 B2 Y
X0 VGND A2 a_27_47# VNB sky130_fd_pr__nfet_01v8 ad=0.08775 pd=0.92 as=0.115375 ps=1.005 w=0.65 l=0.15
X1 a_27_47# B2 Y VNB sky130_fd_pr__nfet_01v8 ad=0.115375 pd=1.005 as=0.092625 ps=0.935 w=0.65 l=0.15
X2 VPWR A1 a_307_297# VPB sky130_fd_pr__pfet_01v8_hvt ad=0.27 pd=2.54 as=0.105 ps=1.21 w=1 l=0.15
X3 a_307_297# A2 Y VPB sky130_fd_pr__pfet_01v8_hvt ad=0.105 pd=1.21 as=0.2325 ps=1.465 w=1 l=0.15
X4 a_27_47# A1 VGND VNB sky130_fd_pr__nfet_01v8 ad=0.169 pd=1.82 as=0.08775 ps=0.92 w=0.65 l=0.15
X5 Y B2 a_109_297# VPB sky130_fd_pr__pfet_01v8_hvt ad=0.2325 pd=1.465 as=0.1125 ps=1.225 w=1 l=0.15
X6 a_109_297# B1 VPWR VPB sky130_fd_pr__pfet_01v8_hvt ad=0.1125 pd=1.225 as=0.26 ps=2.52 w=1 l=0.15
X7 Y B1 a_27_47# VNB sky130_fd_pr__nfet_01v8 ad=0.092625 pd=0.935 as=0.169 ps=1.82 w=0.65 l=0.15
.ends

.subckt sky130_fd_sc_hd__xnor2_1 VGND VPWR B Y A VPB VNB
X0 a_377_297# A VPWR VPB sky130_fd_pr__pfet_01v8_hvt ad=0.105 pd=1.21 as=0.365 ps=1.73 w=1 l=0.15
X1 a_47_47# B VPWR VPB sky130_fd_pr__pfet_01v8_hvt ad=0.135 pd=1.27 as=0.3 ps=2.6 w=1 l=0.15
X2 a_129_47# B a_47_47# VNB sky130_fd_pr__nfet_01v8 ad=0.06825 pd=0.86 as=0.169 ps=1.82 w=0.65 l=0.15
X3 a_285_47# B VGND VNB sky130_fd_pr__nfet_01v8 ad=0.08775 pd=0.92 as=0.169 ps=1.82 w=0.65 l=0.15
X4 Y a_47_47# a_285_47# VNB sky130_fd_pr__nfet_01v8 ad=0.195 pd=1.9 as=0.08775 ps=0.92 w=0.65 l=0.15
X5 VGND A a_129_47# VNB sky130_fd_pr__nfet_01v8 ad=0.08775 pd=0.92 as=0.06825 ps=0.86 w=0.65 l=0.15
X6 VPWR A a_47_47# VPB sky130_fd_pr__pfet_01v8_hvt ad=0.365 pd=1.73 as=0.135 ps=1.27 w=1 l=0.15
X7 VPWR a_47_47# Y VPB sky130_fd_pr__pfet_01v8_hvt ad=0.36 pd=2.72 as=0.165 ps=1.33 w=1 l=0.15
X8 Y B a_377_297# VPB sky130_fd_pr__pfet_01v8_hvt ad=0.165 pd=1.33 as=0.105 ps=1.21 w=1 l=0.15
X9 a_285_47# A VGND VNB sky130_fd_pr__nfet_01v8 ad=0.169 pd=1.82 as=0.08775 ps=0.92 w=0.65 l=0.15
.ends

.subckt sky130_fd_sc_hd__nand3b_1 VPB VNB VGND VPWR Y B C A_N
X0 Y a_53_93# VPWR VPB sky130_fd_pr__pfet_01v8_hvt ad=0.28 pd=2.56 as=0.1925 ps=1.385 w=1 l=0.15
X1 a_232_47# C VGND VNB sky130_fd_pr__nfet_01v8 ad=0.08775 pd=0.92 as=0.10025 ps=0.985 w=0.65 l=0.15
X2 VPWR B Y VPB sky130_fd_pr__pfet_01v8_hvt ad=0.1925 pd=1.385 as=0.135 ps=1.27 w=1 l=0.15
X3 VPWR A_N a_53_93# VPB sky130_fd_pr__pfet_01v8_hvt ad=0.14575 pd=1.335 as=0.1092 ps=1.36 w=0.42 l=0.15
X4 VGND A_N a_53_93# VNB sky130_fd_pr__nfet_01v8 ad=0.10025 pd=0.985 as=0.1092 ps=1.36 w=0.42 l=0.15
X5 a_316_47# B a_232_47# VNB sky130_fd_pr__nfet_01v8 ad=0.125125 pd=1.035 as=0.08775 ps=0.92 w=0.65 l=0.15
X6 Y a_53_93# a_316_47# VNB sky130_fd_pr__nfet_01v8 ad=0.182 pd=1.86 as=0.125125 ps=1.035 w=0.65 l=0.15
X7 Y C VPWR VPB sky130_fd_pr__pfet_01v8_hvt ad=0.135 pd=1.27 as=0.14575 ps=1.335 w=1 l=0.15
.ends

.subckt sky130_fd_sc_hd__xor2_1 VNB VPB VPWR VGND A X B
X0 X a_35_297# a_285_297# VPB sky130_fd_pr__pfet_01v8_hvt ad=0.3 pd=2.6 as=0.26 ps=2.52 w=1 l=0.15
X1 X B a_285_47# VNB sky130_fd_pr__nfet_01v8 ad=0.25025 pd=1.42 as=0.08775 ps=0.92 w=0.65 l=0.15
X2 a_35_297# B VGND VNB sky130_fd_pr__nfet_01v8 ad=0.08775 pd=0.92 as=0.169 ps=1.82 w=0.65 l=0.15
X3 a_117_297# B a_35_297# VPB sky130_fd_pr__pfet_01v8_hvt ad=0.135 pd=1.27 as=0.26 ps=2.52 w=1 l=0.15
X4 VPWR B a_285_297# VPB sky130_fd_pr__pfet_01v8_hvt ad=0.26 pd=2.52 as=0.135 ps=1.27 w=1 l=0.15
X5 VGND A a_35_297# VNB sky130_fd_pr__nfet_01v8 ad=0.08775 pd=0.92 as=0.08775 ps=0.92 w=0.65 l=0.15
X6 VGND a_35_297# X VNB sky130_fd_pr__nfet_01v8 ad=0.208 pd=1.94 as=0.25025 ps=1.42 w=0.65 l=0.15
X7 a_285_297# A VPWR VPB sky130_fd_pr__pfet_01v8_hvt ad=0.135 pd=1.27 as=0.135 ps=1.27 w=1 l=0.15
X8 VPWR A a_117_297# VPB sky130_fd_pr__pfet_01v8_hvt ad=0.135 pd=1.27 as=0.135 ps=1.27 w=1 l=0.15
X9 a_285_47# A VGND VNB sky130_fd_pr__nfet_01v8 ad=0.08775 pd=0.92 as=0.08775 ps=0.92 w=0.65 l=0.15
.ends

.subckt sky130_fd_sc_hd__maj3_1 VPB VNB VGND VPWR X C A B
X0 X a_27_47# VGND VNB sky130_fd_pr__nfet_01v8 ad=0.23725 pd=2.03 as=0.1474 ps=1.215 w=0.65 l=0.15
X1 X a_27_47# VPWR VPB sky130_fd_pr__pfet_01v8_hvt ad=0.365 pd=2.73 as=0.2492 ps=1.565 w=1 l=0.15
X2 a_109_341# C a_27_47# VPB sky130_fd_pr__pfet_01v8_hvt ad=0.0441 pd=0.63 as=0.1092 ps=1.36 w=0.42 l=0.15
X3 a_27_47# B a_265_341# VPB sky130_fd_pr__pfet_01v8_hvt ad=0.0567 pd=0.69 as=0.0441 ps=0.63 w=0.42 l=0.15
X4 VGND A a_109_47# VNB sky130_fd_pr__nfet_01v8 ad=0.0567 pd=0.69 as=0.0441 ps=0.63 w=0.42 l=0.15
X5 a_265_341# A VPWR VPB sky130_fd_pr__pfet_01v8_hvt ad=0.0441 pd=0.63 as=0.0567 ps=0.69 w=0.42 l=0.15
X6 VPWR A a_109_341# VPB sky130_fd_pr__pfet_01v8_hvt ad=0.0567 pd=0.69 as=0.0441 ps=0.63 w=0.42 l=0.15
X7 a_421_47# B a_27_47# VNB sky130_fd_pr__nfet_01v8 ad=0.0441 pd=0.63 as=0.0567 ps=0.69 w=0.42 l=0.15
X8 a_265_47# A VGND VNB sky130_fd_pr__nfet_01v8 ad=0.0441 pd=0.63 as=0.0567 ps=0.69 w=0.42 l=0.15
X9 VGND C a_421_47# VNB sky130_fd_pr__nfet_01v8 ad=0.1474 pd=1.215 as=0.0441 ps=0.63 w=0.42 l=0.15
X10 a_27_47# B a_265_47# VNB sky130_fd_pr__nfet_01v8 ad=0.0567 pd=0.69 as=0.0441 ps=0.63 w=0.42 l=0.15
X11 VPWR C a_421_341# VPB sky130_fd_pr__pfet_01v8_hvt ad=0.2492 pd=1.565 as=0.0441 ps=0.63 w=0.42 l=0.15
X12 a_421_341# B a_27_47# VPB sky130_fd_pr__pfet_01v8_hvt ad=0.0441 pd=0.63 as=0.0567 ps=0.69 w=0.42 l=0.15
X13 a_109_47# C a_27_47# VNB sky130_fd_pr__nfet_01v8 ad=0.0441 pd=0.63 as=0.1092 ps=1.36 w=0.42 l=0.15
.ends

.subckt sky130_fd_sc_hd__a311oi_1 VPB VNB Y C1 B1 A1 A2 A3 VPWR VGND
X0 Y A1 a_194_47# VNB sky130_fd_pr__nfet_01v8 ad=0.115375 pd=1.005 as=0.091 ps=0.93 w=0.65 l=0.15
X1 a_194_47# A2 a_109_47# VNB sky130_fd_pr__nfet_01v8 ad=0.091 pd=0.93 as=0.089375 ps=0.925 w=0.65 l=0.15
X2 Y C1 a_376_297# VPB sky130_fd_pr__pfet_01v8_hvt ad=0.26 pd=2.52 as=0.1725 ps=1.345 w=1 l=0.15
X3 VPWR A2 a_109_297# VPB sky130_fd_pr__pfet_01v8_hvt ad=0.14 pd=1.28 as=0.1375 ps=1.275 w=1 l=0.15
X4 Y C1 VGND VNB sky130_fd_pr__nfet_01v8 ad=0.169 pd=1.82 as=0.112125 ps=0.995 w=0.65 l=0.15
X5 VGND B1 Y VNB sky130_fd_pr__nfet_01v8 ad=0.112125 pd=0.995 as=0.115375 ps=1.005 w=0.65 l=0.15
X6 a_109_297# A1 VPWR VPB sky130_fd_pr__pfet_01v8_hvt ad=0.165 pd=1.33 as=0.14 ps=1.28 w=1 l=0.15
X7 a_376_297# B1 a_109_297# VPB sky130_fd_pr__pfet_01v8_hvt ad=0.1725 pd=1.345 as=0.165 ps=1.33 w=1 l=0.15
X8 a_109_297# A3 VPWR VPB sky130_fd_pr__pfet_01v8_hvt ad=0.1375 pd=1.275 as=0.26 ps=2.52 w=1 l=0.15
X9 a_109_47# A3 VGND VNB sky130_fd_pr__nfet_01v8 ad=0.089375 pd=0.925 as=0.169 ps=1.82 w=0.65 l=0.15
.ends

.subckt sky130_fd_sc_hd__and4_1 X C A B D VGND VPWR VPB VNB
X0 a_27_47# C VPWR VPB sky130_fd_pr__pfet_01v8_hvt ad=0.0588 pd=0.7 as=0.0777 ps=0.79 w=0.42 l=0.15
X1 a_197_47# B a_109_47# VNB sky130_fd_pr__nfet_01v8 ad=0.0798 pd=0.8 as=0.0609 ps=0.71 w=0.42 l=0.15
X2 X a_27_47# VPWR VPB sky130_fd_pr__pfet_01v8_hvt ad=0.26 pd=2.52 as=0.31245 ps=1.68 w=1 l=0.15
X3 a_303_47# C a_197_47# VNB sky130_fd_pr__nfet_01v8 ad=0.0693 pd=0.75 as=0.0798 ps=0.8 w=0.42 l=0.15
X4 a_27_47# A VPWR VPB sky130_fd_pr__pfet_01v8_hvt ad=0.0735 pd=0.77 as=0.1092 ps=1.36 w=0.42 l=0.15
X5 VPWR D a_27_47# VPB sky130_fd_pr__pfet_01v8_hvt ad=0.31245 pd=1.68 as=0.0588 ps=0.7 w=0.42 l=0.15
X6 VGND D a_303_47# VNB sky130_fd_pr__nfet_01v8 ad=0.196275 pd=1.33 as=0.0693 ps=0.75 w=0.42 l=0.15
X7 VPWR B a_27_47# VPB sky130_fd_pr__pfet_01v8_hvt ad=0.0777 pd=0.79 as=0.0735 ps=0.77 w=0.42 l=0.15
X8 X a_27_47# VGND VNB sky130_fd_pr__nfet_01v8 ad=0.169 pd=1.82 as=0.196275 ps=1.33 w=0.65 l=0.15
X9 a_109_47# A a_27_47# VNB sky130_fd_pr__nfet_01v8 ad=0.0609 pd=0.71 as=0.1092 ps=1.36 w=0.42 l=0.15
.ends

.subckt sky130_fd_sc_hd__clkinv_1 VPB VNB VGND VPWR A Y
X0 Y A VPWR VPB sky130_fd_pr__pfet_01v8_hvt ad=0.1134 pd=1.11 as=0.2184 ps=2.2 w=0.84 l=0.15
X1 VGND A Y VNB sky130_fd_pr__nfet_01v8 ad=0.1197 pd=1.41 as=0.1092 ps=1.36 w=0.42 l=0.15
X2 VPWR A Y VPB sky130_fd_pr__pfet_01v8_hvt ad=0.2352 pd=2.24 as=0.1134 ps=1.11 w=0.84 l=0.15
.ends

.subckt sky130_fd_sc_hd__a211o_1 VNB VPB VGND VPWR X A2 B1 A1 C1
X0 VPWR a_80_21# X VPB sky130_fd_pr__pfet_01v8_hvt ad=0.265 pd=2.53 as=0.265 ps=2.53 w=1 l=0.15
X1 a_80_21# C1 a_472_297# VPB sky130_fd_pr__pfet_01v8_hvt ad=0.265 pd=2.53 as=0.155 ps=1.31 w=1 l=0.15
X2 VPWR A2 a_217_297# VPB sky130_fd_pr__pfet_01v8_hvt ad=0.14 pd=1.28 as=0.265 ps=2.53 w=1 l=0.15
X3 VGND B1 a_80_21# VNB sky130_fd_pr__nfet_01v8 ad=0.10075 pd=0.96 as=0.091 ps=0.93 w=0.65 l=0.15
X4 VGND a_80_21# X VNB sky130_fd_pr__nfet_01v8 ad=0.26 pd=1.45 as=0.17225 ps=1.83 w=0.65 l=0.15
X5 a_300_47# A2 VGND VNB sky130_fd_pr__nfet_01v8 ad=0.091 pd=0.93 as=0.26 ps=1.45 w=0.65 l=0.15
X6 a_217_297# A1 VPWR VPB sky130_fd_pr__pfet_01v8_hvt ad=0.14 pd=1.28 as=0.14 ps=1.28 w=1 l=0.15
X7 a_80_21# A1 a_300_47# VNB sky130_fd_pr__nfet_01v8 ad=0.091 pd=0.93 as=0.091 ps=0.93 w=0.65 l=0.15
X8 a_472_297# B1 a_217_297# VPB sky130_fd_pr__pfet_01v8_hvt ad=0.155 pd=1.31 as=0.14 ps=1.28 w=1 l=0.15
X9 a_80_21# C1 VGND VNB sky130_fd_pr__nfet_01v8 ad=0.17225 pd=1.83 as=0.10075 ps=0.96 w=0.65 l=0.15
.ends

.subckt sky130_fd_sc_hd__a21o_1 VPWR VGND VPB VNB A2 A1 B1 X
X0 a_81_21# B1 VGND VNB sky130_fd_pr__nfet_01v8 ad=0.089375 pd=0.925 as=0.25675 ps=1.44 w=0.65 l=0.15
X1 a_299_297# B1 a_81_21# VPB sky130_fd_pr__pfet_01v8_hvt ad=0.1375 pd=1.275 as=0.26 ps=2.52 w=1 l=0.15
X2 VPWR a_81_21# X VPB sky130_fd_pr__pfet_01v8_hvt ad=0.26 pd=2.52 as=0.26 ps=2.52 w=1 l=0.15
X3 VPWR A1 a_299_297# VPB sky130_fd_pr__pfet_01v8_hvt ad=0.14 pd=1.28 as=0.1375 ps=1.275 w=1 l=0.15
X4 VGND a_81_21# X VNB sky130_fd_pr__nfet_01v8 ad=0.25675 pd=1.44 as=0.169 ps=1.82 w=0.65 l=0.15
X5 VGND A2 a_384_47# VNB sky130_fd_pr__nfet_01v8 ad=0.17225 pd=1.83 as=0.091 ps=0.93 w=0.65 l=0.15
X6 a_299_297# A2 VPWR VPB sky130_fd_pr__pfet_01v8_hvt ad=0.265 pd=2.53 as=0.14 ps=1.28 w=1 l=0.15
X7 a_384_47# A1 a_81_21# VNB sky130_fd_pr__nfet_01v8 ad=0.091 pd=0.93 as=0.089375 ps=0.925 w=0.65 l=0.15
.ends

.subckt sky130_fd_sc_hd__and2_0 VNB VPB VPWR VGND X B A
X0 VPWR B a_40_47# VPB sky130_fd_pr__pfet_01v8_hvt ad=0.1841 pd=1.26 as=0.0609 ps=0.71 w=0.42 l=0.15
X1 X a_40_47# VPWR VPB sky130_fd_pr__pfet_01v8_hvt ad=0.1696 pd=1.81 as=0.1841 ps=1.26 w=0.64 l=0.15
X2 VGND B a_123_47# VNB sky130_fd_pr__nfet_01v8 ad=0.0966 pd=0.88 as=0.0441 ps=0.63 w=0.42 l=0.15
X3 X a_40_47# VGND VNB sky130_fd_pr__nfet_01v8 ad=0.1113 pd=1.37 as=0.0966 ps=0.88 w=0.42 l=0.15
X4 a_123_47# A a_40_47# VNB sky130_fd_pr__nfet_01v8 ad=0.0441 pd=0.63 as=0.1113 ps=1.37 w=0.42 l=0.15
X5 a_40_47# A VPWR VPB sky130_fd_pr__pfet_01v8_hvt ad=0.0609 pd=0.71 as=0.1113 ps=1.37 w=0.42 l=0.15
.ends

.subckt sky130_fd_sc_hd__nand2b_1 VPB VNB VGND VPWR A_N B Y
X0 VGND A_N a_27_93# VNB sky130_fd_pr__nfet_01v8 ad=0.10025 pd=0.985 as=0.1092 ps=1.36 w=0.42 l=0.15
X1 Y a_27_93# a_206_47# VNB sky130_fd_pr__nfet_01v8 ad=0.169 pd=1.82 as=0.08775 ps=0.92 w=0.65 l=0.15
X2 a_206_47# B VGND VNB sky130_fd_pr__nfet_01v8 ad=0.08775 pd=0.92 as=0.10025 ps=0.985 w=0.65 l=0.15