.subckt riscv_top alu_op[1] alu_op[2] branch_type[1] clk conv_done conv_start ex_alu_op_o[0] ex_alu_op_o[1] ex_alu_op_o[2] ex_alu_op_o[3] ex_alu_src_imm_o ex_conv_init_o ex_imm_o[0] ex_imm_o[11] ex_imm_o[13] ex_imm_o[14] ex_imm_o[15] ex_imm_o[18] ex_imm_o[23] ex_imm_o[25] ex_imm_o[26] ex_imm_o[27] ex_imm_o[31] ex_imm_o[4] ex_imm_o[5] ex_imm_o[6] ex_imm_o[8] ex_is_conv_o ex_mem_size_o[0] ex_pc4_o[0] ex_pc4_o[10] ex_pc4_o[12] ex_pc4_o[13] ex_pc4_o[14] ex_pc4_o[16] ex_pc4_o[17] ex_pc4_o[18] ex_pc4_o[19] ex_pc4_o[1] ex_pc4_o[20] ex_pc4_o[21] ex_pc4_o[22] ex_pc4_o[24] ex_pc4_o[25] ex_pc4_o[26] ex_pc4_o[27] ex_pc4_o[28] ex_pc4_o[29] ex_pc4_o[2] ex_pc4_o[30] ex_pc4_o[31] ex_pc4_o[3] ex_pc4_o[4] ex_pc4_o[5] ex_pc4_o[6] ex_pc4_o[7] ex_pc_o[0] ex_pc_o[10] ex_pc_o[14] ex_pc_o[16] ex_pc_o[17] ex_pc_o[24] ex_pc_o[27] ex_pc_o[2] ex_pc_o[5] ex_pc_o[6] ex_pc_o[7] ex_rd_addr_o[0] ex_rd_addr_o[1] ex_rd_addr_o[2] ex_rd_addr_o[3] ex_rs1_addr_o[0] ex_rs1_addr_o[1] ex_rs1_addr_o[3] ex_rs1_addr_o[4] ex_rs1_data_o[11] ex_rs1_data_o[12] ex_rs1_data_o[14] ex_rs1_data_o[20] ex_rs1_data_o[28] ex_rs2_addr_o[0] ex_rs2_addr_o[1] ex_rs2_addr_o[2] ex_rs2_addr_o[3] ex_rs2_addr_o[4] ex_rs2_data_o[13] ex_wb_sel_o[0] ex_wb_sel_o[1] id_instr_o[17] id_instr_o[18] id_instr_o[21] id_instr_o[27] id_instr_o[31] id_pc4_o[0] id_pc4_o[11] id_pc4_o[12] id_pc4_o[13] id_pc4_o[15] id_pc4_o[17] id_pc4_o[18] id_pc4_o[21] id_pc4_o[22] id_pc4_o[23] id_pc4_o[24] id_pc4_o[25] id_pc4_o[27] id_pc4_o[2] id_pc4_o[30] id_pc4_o[31] id_pc4_o[3] id_pc4_o[4] id_pc4_o[5] id_pc4_o[7] id_pc4_o[8] id_pc4_o[9] id_pc_o[10] id_pc_o[13] id_pc_o[14] id_pc_o[15] id_pc_o[17] id_pc_o[18] id_pc_o[1] id_pc_o[20] id_pc_o[21] id_pc_o[23] id_pc_o[24] id_pc_o[26] id_pc_o[29] id_pc_o[2] id_pc_o[5] id_pc_o[6] id_pc_o[7] id_pc_o[9] redirect_pc_i[0] redirect_pc_i[10] redirect_pc_i[11] redirect_pc_i[12] redirect_pc_i[13] redirect_pc_i[14] redirect_pc_i[15] redirect_pc_i[16] redirect_pc_i[18] redirect_pc_i[19] redirect_pc_i[1] redirect_pc_i[20] redirect_pc_i[22] redirect_pc_i[23] redirect_pc_i[24] redirect_pc_i[25] redirect_pc_i[26] redirect_pc_i[27] redirect_pc_i[28] redirect_pc_i[30] redirect_pc_i[31] redirect_pc_i[3] redirect_pc_i[4] redirect_pc_i[5] redirect_pc_i[6] redirect_pc_i[7] redirect_pc_i[8] wb_data[0] wb_data[10] wb_data[11] wb_data[12] wb_data[13] wb_data[14] wb_data[17] wb_data[19] wb_data[1] wb_data[20] wb_data[21] wb_data[22] wb_data[25] wb_data[26] wb_data[27] id_pc4_o[19] wb_data[2] wb_data[4] wb_data[6] wb_data[8]
* SPICE netlist generated by Yosys 0.46 (git sha1 e97731b9dda91fa5fa53ed87df7c34163ba59a41, clang++ 17.0.6 -fPIC -O3)

X0 stall_i 1 sky130_fd_sc_hd__clkinv_1
X1 if_stage_id_reg_inst.if_stage_inst.pc_for_instr_q.17 2 sky130_fd_sc_hd__clkinv_1
X2 if_stage_id_reg_inst.if_stage_inst.pc_for_instr_q.18 3 sky130_fd_sc_hd__clkinv_1
X3 if_stage_id_reg_inst.if_stage_inst.pc_for_instr_q.19 4 sky130_fd_sc_hd__clkinv_1
X4 if_stage_id_reg_inst.if_stage_inst.pc_for_instr_q.20 5 sky130_fd_sc_hd__clkinv_1
X5 if_stage_id_reg_inst.if_stage_inst.pc_for_instr_q.23 6 sky130_fd_sc_hd__clkinv_1
X6 if_stage_id_reg_inst.if_stage_inst.pc_for_instr_q.24 7 sky130_fd_sc_hd__clkinv_1
X7 if_stage_id_reg_inst.if_stage_inst.pc_for_instr_q.25 8 sky130_fd_sc_hd__clkinv_1
X8 if_stage_id_reg_inst.if_stage_inst.pc_for_instr_q.26 9 sky130_fd_sc_hd__clkinv_1
X9 if_stage_id_reg_inst.if_stage_inst.pc_q.9 10 sky130_fd_sc_hd__clkinv_1
X10 if_stage_id_reg_inst.if_stage_inst.pc_q.16 11 sky130_fd_sc_hd__clkinv_1
X11 ex_mem_stages_top_inst.ex_mem_top_inst.ex_stage_inst.conv_inst.count.7 12 sky130_fd_sc_hd__clkinv_1
X12 ex_mem_stages_top_inst.ex_mem_top_inst.ex_stage_inst.conv_inst.state.1 13 sky130_fd_sc_hd__clkinv_1
X13 ex_mem_stages_top_inst.ex_mem_top_inst.ex_stage_inst.conv_inst.done 14 sky130_fd_sc_hd__clkinv_1
X14 ex_mem_stages_top_inst.ex_mem_top_inst.ex_stage_inst.conv_inst.count.3 ex_mem_stages_top_inst.ex_mem_top_inst.ex_stage_inst.conv_inst.count.2 ex_mem_stages_top_inst.ex_mem_top_inst.ex_stage_inst.conv_inst.count.1 ex_mem_stages_top_inst.ex_mem_top_inst.ex_stage_inst.conv_inst.count.0 15 sky130_fd_sc_hd__nor4_1
X15 15 ex_mem_stages_top_inst.ex_mem_top_inst.ex_stage_inst.conv_inst.count.4 16 sky130_fd_sc_hd__lpflow_isobufsrc_1
X16 ex_mem_stages_top_inst.ex_mem_top_inst.ex_stage_inst.conv_inst.count.5 16 17 sky130_fd_sc_hd__nand2b_1
X17 ex_mem_stages_top_inst.ex_mem_top_inst.ex_stage_inst.conv_inst.count.6 17 18 sky130_fd_sc_hd__nor2_1
X18 ex_mem_stages_top_inst.ex_mem_top_inst.ex_stage_inst.conv_inst.state.0 ex_mem_stages_top_inst.ex_mem_top_inst.ex_stage_inst.conv_inst.state.1 19 sky130_fd_sc_hd__lpflow_isobufsrc_1
X19 ex_mem_stages_top_inst.ex_mem_top_inst.ex_stage_inst.conv_inst.count.7 ex_mem_stages_top_inst.ex_mem_top_inst.ex_stage_inst.conv_inst.count.6 17 19 20 sky130_fd_sc_hd__o31ai_1
X20 ex_mem_stages_top_inst.ex_mem_top_inst.ex_stage_inst.conv_inst.state.0 ex_mem_stages_top_inst.ex_mem_top_inst.ex_stage_inst.conv_inst.state.1 21 sky130_fd_sc_hd__nor2_1
X21 ex_mem_stages_top_inst.ex_mem_top_inst.ex_stage_inst.conv_inst.start_d conv_start 21 22 sky130_fd_sc_hd__nand3b_1
X22 20 22 23 sky130_fd_sc_hd__nand2_1
X23 17 19 24 sky130_fd_sc_hd__nand2_1
X24 23 24 25 sky130_fd_sc_hd__nand2_1
X25 ex_mem_stages_top_inst.ex_mem_top_inst.ex_stage_inst.conv_inst.count.6 25 26 sky130_fd_sc_hd__nand2_1
X26 18 19 27 sky130_fd_sc_hd__nand2_1
X27 12 27 26 28 sky130_fd_sc_hd__o21ai_0
X28 16 20 23 29 sky130_fd_sc_hd__o21ai_0
X29 ex_mem_stages_top_inst.ex_mem_top_inst.ex_stage_inst.conv_inst.count.5 29 30 sky130_fd_sc_hd__nand2_1
X30 17 20 30 31 sky130_fd_sc_hd__o21ai_0
X31 ex_mem_stages_top_inst.ex_mem_top_inst.ex_stage_inst.conv_inst.count.4 20 22 32 sky130_fd_sc_hd__nand3_1
X32 ex_mem_stages_top_inst.ex_mem_top_inst.ex_stage_inst.conv_inst.count.4 15 33 sky130_fd_sc_hd__xnor2_1
X33 20 33 32 34 sky130_fd_sc_hd__o21ai_0
X34 ex_mem_stages_top_inst.ex_mem_top_inst.ex_stage_inst.conv_inst.count.3 20 22 35 sky130_fd_sc_hd__nand3_1
X35 ex_mem_stages_top_inst.ex_mem_top_inst.ex_stage_inst.conv_inst.count.2 ex_mem_stages_top_inst.ex_mem_top_inst.ex_stage_inst.conv_inst.count.1 ex_mem_stages_top_inst.ex_mem_top_inst.ex_stage_inst.conv_inst.count.0 ex_mem_stages_top_inst.ex_mem_top_inst.ex_stage_inst.conv_inst.count.3 36 sky130_fd_sc_hd__o31a_1
X36 15 36 37 sky130_fd_sc_hd__nor2_1
X37 20 37 35 38 sky130_fd_sc_hd__o21ai_0
X38 ex_mem_stages_top_inst.ex_mem_top_inst.ex_stage_inst.conv_inst.count.1 ex_mem_stages_top_inst.ex_mem_top_inst.ex_stage_inst.conv_inst.count.0 20 39 sky130_fd_sc_hd__or3_1
X39 ex_mem_stages_top_inst.ex_mem_top_inst.ex_stage_inst.conv_inst.count.2 22 39 40 sky130_fd_sc_hd__nand3_1
X40 ex_mem_stages_top_inst.ex_mem_top_inst.ex_stage_inst.conv_inst.count.2 39 40 41 sky130_fd_sc_hd__o21ai_0
X41 ex_mem_stages_top_inst.ex_mem_top_inst.ex_stage_inst.conv_inst.count.0 20 ex_mem_stages_top_inst.ex_mem_top_inst.ex_stage_inst.conv_inst.count.1 42 sky130_fd_sc_hd__o21ai_0
X42 22 39 42 43 sky130_fd_sc_hd__nand3_1
X43 ex_mem_stages_top_inst.ex_mem_top_inst.ex_stage_inst.conv_inst.count.0 20 44 sky130_fd_sc_hd__nand2_1
X44 ex_mem_stages_top_inst.ex_mem_top_inst.ex_stage_inst.conv_inst.count.0 20 22 44 45 sky130_fd_sc_hd__o211ai_1
X45 flush_i rst_n 46 sky130_fd_sc_hd__nand2b_1
X46 46 47 sky130_fd_sc_hd__clkinv_1
X47 if_stage_id_reg_inst.if_id_reg_inst.id_pc_o.30 47 48 sky130_fd_sc_hd__and2_0
X48 if_stage_id_reg_inst.if_id_reg_inst.id_pc_o.29 47 49 sky130_fd_sc_hd__and2_0
X49 if_stage_id_reg_inst.if_id_reg_inst.id_pc_o.28 47 50 sky130_fd_sc_hd__and2_0
X50 if_stage_id_reg_inst.if_id_reg_inst.id_pc_o.27 47 51 sky130_fd_sc_hd__and2_0
X51 if_stage_id_reg_inst.if_id_reg_inst.id_pc_o.26 47 52 sky130_fd_sc_hd__and2_0
X52 if_stage_id_reg_inst.if_id_reg_inst.id_pc_o.25 47 53 sky130_fd_sc_hd__and2_0
X53 if_stage_id_reg_inst.if_id_reg_inst.id_pc_o.24 47 54 sky130_fd_sc_hd__and2_0
X54 if_stage_id_reg_inst.if_id_reg_inst.id_pc_o.23 47 55 sky130_fd_sc_hd__and2_0
X55 if_stage_id_reg_inst.if_id_reg_inst.id_pc_o.22 47 56 sky130_fd_sc_hd__and2_0
X56 if_stage_id_reg_inst.if_id_reg_inst.id_pc_o.21 47 57 sky130_fd_sc_hd__and2_0
X57 if_stage_id_reg_inst.if_id_reg_inst.id_pc_o.20 47 58 sky130_fd_sc_hd__and2_0
X58 if_stage_id_reg_inst.if_id_reg_inst.id_pc_o.19 47 59 sky130_fd_sc_hd__and2_0
X59 if_stage_id_reg_inst.if_id_reg_inst.id_pc_o.18 47 60 sky130_fd_sc_hd__and2_0
X60 if_stage_id_reg_inst.if_id_reg_inst.id_pc_o.17 47 61 sky130_fd_sc_hd__and2_0
X61 if_stage_id_reg_inst.if_id_reg_inst.id_pc_o.16 47 62 sky130_fd_sc_hd__and2_0
X62 if_stage_id_reg_inst.if_id_reg_inst.id_pc_o.15 47 63 sky130_fd_sc_hd__and2_0
X63 if_stage_id_reg_inst.if_id_reg_inst.id_pc_o.14 47 64 sky130_fd_sc_hd__and2_0
X64 if_stage_id_reg_inst.if_id_reg_inst.id_pc_o.13 47 65 sky130_fd_sc_hd__and2_0
X65 if_stage_id_reg_inst.if_id_reg_inst.id_pc_o.12 47 66 sky130_fd_sc_hd__and2_0
X66 if_stage_id_reg_inst.if_id_reg_inst.id_pc_o.11 47 67 sky130_fd_sc_hd__and2_0
X67 if_stage_id_reg_inst.if_id_reg_inst.id_pc_o.10 47 68 sky130_fd_sc_hd__and2_0
X68 if_stage_id_reg_inst.if_id_reg_inst.id_pc_o.9 47 69 sky130_fd_sc_hd__and2_0
X69 if_stage_id_reg_inst.if_id_reg_inst.id_pc_o.8 47 70 sky130_fd_sc_hd__and2_0
X70 if_stage_id_reg_inst.if_id_reg_inst.id_pc_o.7 47 71 sky130_fd_sc_hd__and2_0
X71 if_stage_id_reg_inst.if_id_reg_inst.id_pc_o.6 47 72 sky130_fd_sc_hd__and2_0
X72 if_stage_id_reg_inst.if_id_reg_inst.id_pc_o.5 47 73 sky130_fd_sc_hd__and2_0
X73 if_stage_id_reg_inst.if_id_reg_inst.id_pc_o.4 47 74 sky130_fd_sc_hd__and2_0
X74 if_stage_id_reg_inst.if_id_reg_inst.id_pc_o.3 47 75 sky130_fd_sc_hd__and2_0
X75 if_stage_id_reg_inst.if_id_reg_inst.id_pc_o.2 47 76 sky130_fd_sc_hd__and2_0
X76 if_stage_id_reg_inst.if_id_reg_inst.id_pc_o.1 47 77 sky130_fd_sc_hd__and2_0
X77 if_stage_id_reg_inst.if_id_reg_inst.id_pc_o.0 47 78 sky130_fd_sc_hd__and2_0
X78 if_stage_id_reg_inst.if_id_reg_inst.id_pc4_o.30 47 79 sky130_fd_sc_hd__and2_0
X79 if_stage_id_reg_inst.if_id_reg_inst.id_pc4_o.29 47 80 sky130_fd_sc_hd__and2_0
X80 if_stage_id_reg_inst.if_id_reg_inst.id_pc4_o.28 47 81 sky130_fd_sc_hd__and2_0
X81 if_stage_id_reg_inst.if_id_reg_inst.id_pc4_o.27 47 82 sky130_fd_sc_hd__and2_0
X82 if_stage_id_reg_inst.if_id_reg_inst.id_pc4_o.26 47 83 sky130_fd_sc_hd__and2_0
X83 if_stage_id_reg_inst.if_id_reg_inst.id_pc4_o.25 47 84 sky130_fd_sc_hd__and2_0
X84 if_stage_id_reg_inst.if_id_reg_inst.id_pc4_o.24 47 85 sky130_fd_sc_hd__and2_0
X85 if_stage_id_reg_inst.if_id_reg_inst.id_pc4_o.23 47 86 sky130_fd_sc_hd__and2_0
X86 if_stage_id_reg_inst.if_id_reg_inst.id_pc4_o.22 47 87 sky130_fd_sc_hd__and2_0
X87 if_stage_id_reg_inst.if_id_reg_inst.id_pc4_o.21 47 88 sky130_fd_sc_hd__and2_0
X88 if_stage_id_reg_inst.if_id_reg_inst.id_pc4_o.20 47 89 sky130_fd_sc_hd__and2_0
X89 if_stage_id_reg_inst.if_id_reg_inst.id_pc4_o.19 47 90 sky130_fd_sc_hd__and2_0
X90 if_stage_id_reg_inst.if_id_reg_inst.id_pc4_o.18 47 91 sky130_fd_sc_hd__and2_0
X91 if_stage_id_reg_inst.if_id_reg_inst.id_pc4_o.17 47 92 sky130_fd_sc_hd__and2_0
X92 if_stage_id_reg_inst.if_id_reg_inst.id_pc4_o.16 47 93 sky130_fd_sc_hd__and2_0
X93 if_stage_id_reg_inst.if_id_reg_inst.id_pc4_o.15 47 94 sky130_fd_sc_hd__and2_0
X94 if_stage_id_reg_inst.if_id_reg_inst.id_pc4_o.14 47 95 sky130_fd_sc_hd__and2_0
X95 if_stage_id_reg_inst.if_id_reg_inst.id_pc4_o.13 47 96 sky130_fd_sc_hd__and2_0
X96 if_stage_id_reg_inst.if_id_reg_inst.id_pc4_o.12 47 97 sky130_fd_sc_hd__and2_0
X97 if_stage_id_reg_inst.if_id_reg_inst.id_pc4_o.11 47 98 sky130_fd_sc_hd__and2_0
X98 if_stage_id_reg_inst.if_id_reg_inst.id_pc4_o.10 47 99 sky130_fd_sc_hd__and2_0
X99 if_stage_id_reg_inst.if_id_reg_inst.id_pc4_o.9 47 100 sky130_fd_sc_hd__and2_0
X100 if_stage_id_reg_inst.if_id_reg_inst.id_pc4_o.8 47 101 sky130_fd_sc_hd__and2_0
X101 if_stage_id_reg_inst.if_id_reg_inst.id_pc4_o.7 47 102 sky130_fd_sc_hd__and2_0
X102 if_stage_id_reg_inst.if_id_reg_inst.id_pc4_o.6 47 103 sky130_fd_sc_hd__and2_0
X103 if_stage_id_reg_inst.if_id_reg_inst.id_pc4_o.5 47 104 sky130_fd_sc_hd__and2_0
X104 if_stage_id_reg_inst.if_id_reg_inst.id_pc4_o.4 47 105 sky130_fd_sc_hd__and2_0
X105 if_stage_id_reg_inst.if_id_reg_inst.id_pc4_o.3 47 106 sky130_fd_sc_hd__and2_0
X106 if_stage_id_reg_inst.if_id_reg_inst.id_pc4_o.2 46 107 sky130_fd_sc_hd__lpflow_inputiso1p_1
X107 if_stage_id_reg_inst.if_id_reg_inst.id_pc4_o.1 47 108 sky130_fd_sc_hd__and2_0
X108 if_stage_id_reg_inst.if_id_reg_inst.id_pc4_o.0 47 109 sky130_fd_sc_hd__and2_0
X109 if_stage_id_reg_inst.if_stage_inst.pc_q.2 if_stage_id_reg_inst.if_stage_inst.pc_q.3 if_stage_id_reg_inst.if_stage_inst.pc_q.4 110 sky130_fd_sc_hd__nand3_1
X110 if_stage_id_reg_inst.if_stage_inst.pc_q.5 if_stage_id_reg_inst.if_stage_inst.pc_q.6 111 sky130_fd_sc_hd__nand2_1
X111 110 111 112 sky130_fd_sc_hd__nor2_1
X112 110 111 113 sky130_fd_sc_hd__lpflow_inputiso1p_1
X113 if_stage_id_reg_inst.if_stage_inst.pc_q.7 if_stage_id_reg_inst.if_stage_inst.pc_q.8 114 sky130_fd_sc_hd__nand2_1
X114 113 114 115 sky130_fd_sc_hd__nor2_1
X115 10 110 111 114 116 sky130_fd_sc_hd__nor4_1
X116 if_stage_id_reg_inst.if_stage_inst.pc_q.10 116 117 sky130_fd_sc_hd__and2_0
X117 if_stage_id_reg_inst.if_stage_inst.pc_q.10 if_stage_id_reg_inst.if_stage_inst.pc_q.11 if_stage_id_reg_inst.if_stage_inst.pc_q.12 116 118 sky130_fd_sc_hd__and4_1
X118 if_stage_id_reg_inst.if_stage_inst.pc_q.13 118 119 sky130_fd_sc_hd__and2_0
X119 if_stage_id_reg_inst.if_stage_inst.pc_q.13 if_stage_id_reg_inst.if_stage_inst.pc_q.14 if_stage_id_reg_inst.if_stage_inst.pc_q.15 118 120 sky130_fd_sc_hd__nand4_1
X120 11 120 121 sky130_fd_sc_hd__nor2_1
X121 if_stage_id_reg_inst.if_stage_inst.pc_q.17 121 122 sky130_fd_sc_hd__and2_0
X122 if_stage_id_reg_inst.if_stage_inst.pc_q.17 if_stage_id_reg_inst.if_stage_inst.pc_q.18 if_stage_id_reg_inst.if_stage_inst.pc_q.19 121 123 sky130_fd_sc_hd__and4_1
X123 if_stage_id_reg_inst.if_stage_inst.pc_q.20 123 124 sky130_fd_sc_hd__nand2_1
X124 if_stage_id_reg_inst.if_stage_inst.pc_q.20 if_stage_id_reg_inst.if_stage_inst.pc_q.21 if_stage_id_reg_inst.if_stage_inst.pc_q.22 123 125 sky130_fd_sc_hd__and4_1
X125 if_stage_id_reg_inst.if_stage_inst.pc_q.23 125 126 sky130_fd_sc_hd__nand2_1
X126 if_stage_id_reg_inst.if_stage_inst.pc_q.23 if_stage_id_reg_inst.if_stage_inst.pc_q.24 if_stage_id_reg_inst.if_stage_inst.pc_q.25 125 127 sky130_fd_sc_hd__and4_1
X127 if_stage_id_reg_inst.if_stage_inst.pc_q.26 if_stage_id_reg_inst.if_stage_inst.pc_q.27 if_stage_id_reg_inst.if_stage_inst.pc_q.28 127 128 sky130_fd_sc_hd__and4_1
X128 if_stage_id_reg_inst.if_stage_inst.pc_q.29 128 if_stage_id_reg_inst.if_stage_inst.pc_q.30 129 sky130_fd_sc_hd__a21o_1
X129 if_stage_id_reg_inst.if_stage_inst.pc_q.29 if_stage_id_reg_inst.if_stage_inst.pc_q.30 128 redirect_valid_i 130 sky130_fd_sc_hd__a31oi_1
X130 stall_i redirect_valid_i 131 sky130_fd_sc_hd__nor2_1
X131 redirect_pc_i.30 redirect_valid_i 129 130 stall_i 132 sky130_fd_sc_hd__a221oi_1
X132 1 if_stage_id_reg_inst.if_stage_inst.pc_q.30 rst_n 133 sky130_fd_sc_hd__o21ai_0
X133 132 133 134 sky130_fd_sc_hd__nor2_1
X134 if_stage_id_reg_inst.if_stage_inst.pc_q.29 128 redirect_valid_i 135 sky130_fd_sc_hd__a21oi_1
X135 if_stage_id_reg_inst.if_stage_inst.pc_q.29 128 135 136 sky130_fd_sc_hd__o21ai_0
X136 redirect_valid_i redirect_pc_i.29 stall_i 137 sky130_fd_sc_hd__a21oi_1
X137 1 if_stage_id_reg_inst.if_stage_inst.pc_q.29 rst_n 138 sky130_fd_sc_hd__o21ai_0
X138 136 137 138 139 sky130_fd_sc_hd__a21oi_1
X139 if_stage_id_reg_inst.if_stage_inst.pc_q.26 if_stage_id_reg_inst.if_stage_inst.pc_q.27 127 if_stage_id_reg_inst.if_stage_inst.pc_q.28 140 sky130_fd_sc_hd__a31oi_1
X140 redirect_valid_i 128 140 141 sky130_fd_sc_hd__nor3_1
X141 redirect_valid_i redirect_pc_i.28 141 142 sky130_fd_sc_hd__a21oi_1
X142 1 if_stage_id_reg_inst.if_stage_inst.pc_q.28 rst_n 143 sky130_fd_sc_hd__o21ai_0
X143 1 142 143 144 sky130_fd_sc_hd__a21oi_1
X144 if_stage_id_reg_inst.if_stage_inst.pc_q.26 127 if_stage_id_reg_inst.if_stage_inst.pc_q.27 145 sky130_fd_sc_hd__a21oi_1
X145 if_stage_id_reg_inst.if_stage_inst.pc_q.26 if_stage_id_reg_inst.if_stage_inst.pc_q.27 127 redirect_valid_i 146 sky130_fd_sc_hd__a31o_1
X146 145 146 147 sky130_fd_sc_hd__nor2_1
X147 redirect_valid_i redirect_pc_i.27 147 148 sky130_fd_sc_hd__a21oi_1
X148 1 if_stage_id_reg_inst.if_stage_inst.pc_q.27 rst_n 149 sky130_fd_sc_hd__o21ai_0
X149 1 148 149 150 sky130_fd_sc_hd__a21oi_1
X150 if_stage_id_reg_inst.if_stage_inst.pc_q.26 127 redirect_valid_i 151 sky130_fd_sc_hd__a21oi_1
X151 if_stage_id_reg_inst.if_stage_inst.pc_q.26 127 151 152 sky130_fd_sc_hd__o21ai_0
X152 redirect_valid_i redirect_pc_i.26 stall_i 153 sky130_fd_sc_hd__a21oi_1
X153 1 if_stage_id_reg_inst.if_stage_inst.pc_q.26 rst_n 154 sky130_fd_sc_hd__o21ai_0
X154 152 153 154 155 sky130_fd_sc_hd__a21oi_1
X155 if_stage_id_reg_inst.if_stage_inst.pc_q.23 if_stage_id_reg_inst.if_stage_inst.pc_q.24 125 if_stage_id_reg_inst.if_stage_inst.pc_q.25 156 sky130_fd_sc_hd__a31oi_1
X156 redirect_valid_i 127 156 157 sky130_fd_sc_hd__nor3_1
X157 redirect_valid_i redirect_pc_i.25 157 158 sky130_fd_sc_hd__a21oi_1
X158 1 if_stage_id_reg_inst.if_stage_inst.pc_q.25 rst_n 159 sky130_fd_sc_hd__o21ai_0
X159 1 158 159 160 sky130_fd_sc_hd__a21oi_1
X160 if_stage_id_reg_inst.if_stage_inst.pc_q.24 126 161 sky130_fd_sc_hd__xor2_1
X161 redirect_valid_i redirect_pc_i.24 stall_i 162 sky130_fd_sc_hd__a21oi_1
X162 redirect_valid_i 161 162 163 sky130_fd_sc_hd__o21ai_0
X163 1 if_stage_id_reg_inst.if_stage_inst.pc_q.24 rst_n 163 164 sky130_fd_sc_hd__o211a_1
X164 if_stage_id_reg_inst.if_stage_inst.pc_q.23 125 redirect_valid_i 165 sky130_fd_sc_hd__a21oi_1
X165 if_stage_id_reg_inst.if_stage_inst.pc_q.23 125 165 166 sky130_fd_sc_hd__o21ai_0
X166 redirect_valid_i redirect_pc_i.23 stall_i 167 sky130_fd_sc_hd__a21oi_1
X167 1 if_stage_id_reg_inst.if_stage_inst.pc_q.23 rst_n 168 sky130_fd_sc_hd__o21ai_0
X168 166 167 168 169 sky130_fd_sc_hd__a21oi_1
X169 if_stage_id_reg_inst.if_stage_inst.pc_q.20 if_stage_id_reg_inst.if_stage_inst.pc_q.21 123 if_stage_id_reg_inst.if_stage_inst.pc_q.22 170 sky130_fd_sc_hd__a31oi_1
X170 redirect_valid_i 125 170 171 sky130_fd_sc_hd__nor3_1
X171 redirect_valid_i redirect_pc_i.22 171 172 sky130_fd_sc_hd__a21oi_1
X172 1 if_stage_id_reg_inst.if_stage_inst.pc_q.22 rst_n 173 sky130_fd_sc_hd__o21ai_0
X173 1 172 173 174 sky130_fd_sc_hd__a21oi_1
X174 if_stage_id_reg_inst.if_stage_inst.pc_q.21 124 175 sky130_fd_sc_hd__xor2_1
X175 redirect_valid_i 175 176 sky130_fd_sc_hd__nor2_1
X176 redirect_valid_i redirect_pc_i.21 176 177 sky130_fd_sc_hd__a21oi_1
X177 1 if_stage_id_reg_inst.if_stage_inst.pc_q.21 rst_n 178 sky130_fd_sc_hd__o21ai_0
X178 1 177 178 179 sky130_fd_sc_hd__a21oi_1
X179 if_stage_id_reg_inst.if_stage_inst.pc_q.20 123 redirect_valid_i 180 sky130_fd_sc_hd__a21oi_1
X180 if_stage_id_reg_inst.if_stage_inst.pc_q.20 123 180 181 sky130_fd_sc_hd__o21ai_0
X181 redirect_valid_i redirect_pc_i.20 stall_i 182 sky130_fd_sc_hd__a21oi_1
X182 1 if_stage_id_reg_inst.if_stage_inst.pc_q.20 rst_n 183 sky130_fd_sc_hd__o21ai_0
X183 181 182 183 184 sky130_fd_sc_hd__a21oi_1
X184 if_stage_id_reg_inst.if_stage_inst.pc_q.18 122 if_stage_id_reg_inst.if_stage_inst.pc_q.19 185 sky130_fd_sc_hd__a21oi_1
X185 redirect_valid_i 123 185 186 sky130_fd_sc_hd__nor3_1
X186 redirect_valid_i redirect_pc_i.19 186 187 sky130_fd_sc_hd__a21oi_1
X187 1 if_stage_id_reg_inst.if_stage_inst.pc_q.19 rst_n 188 sky130_fd_sc_hd__o21ai_0
X188 1 187 188 189 sky130_fd_sc_hd__a21oi_1
X189 if_stage_id_reg_inst.if_stage_inst.pc_q.18 122 redirect_valid_i 190 sky130_fd_sc_hd__a21oi_1
X190 if_stage_id_reg_inst.if_stage_inst.pc_q.18 122 190 191 sky130_fd_sc_hd__o21ai_0
X191 redirect_valid_i redirect_pc_i.18 stall_i 192 sky130_fd_sc_hd__a21oi_1
X192 1 if_stage_id_reg_inst.if_stage_inst.pc_q.18 rst_n 193 sky130_fd_sc_hd__o21ai_0
X193 191 192 193 194 sky130_fd_sc_hd__a21oi_1
X194 redirect_valid_i 122 195 sky130_fd_sc_hd__nor2_1
X195 if_stage_id_reg_inst.if_stage_inst.pc_q.17 121 195 196 sky130_fd_sc_hd__o21ai_0
X196 redirect_valid_i redirect_pc_i.17 stall_i 197 sky130_fd_sc_hd__a21oi_1
X197 1 if_stage_id_reg_inst.if_stage_inst.pc_q.17 rst_n 198 sky130_fd_sc_hd__o21ai_0
X198 196 197 198 199 sky130_fd_sc_hd__a21oi_1
X199 11 120 200 sky130_fd_sc_hd__and2_0
X200 redirect_valid_i 121 200 201 sky130_fd_sc_hd__nor3_1
X201 redirect_valid_i redirect_pc_i.16 201 202 sky130_fd_sc_hd__a21oi_1
X202 1 if_stage_id_reg_inst.if_stage_inst.pc_q.16 rst_n 203 sky130_fd_sc_hd__o21ai_0
X203 1 202 203 204 sky130_fd_sc_hd__a21oi_1
X204 if_stage_id_reg_inst.if_stage_inst.pc_q.14 119 if_stage_id_reg_inst.if_stage_inst.pc_q.15 205 sky130_fd_sc_hd__a21o_1
X205 120 205 206 sky130_fd_sc_hd__nand2_1
X206 redirect_valid_i 206 207 sky130_fd_sc_hd__nor2_1
X207 redirect_valid_i redirect_pc_i.15 207 208 sky130_fd_sc_hd__a21oi_1
X208 1 if_stage_id_reg_inst.if_stage_inst.pc_q.15 rst_n 209 sky130_fd_sc_hd__o21ai_0
X209 1 208 209 210 sky130_fd_sc_hd__a21oi_1
X210 if_stage_id_reg_inst.if_stage_inst.pc_q.14 119 redirect_valid_i 211 sky130_fd_sc_hd__a21oi_1
X211 if_stage_id_reg_inst.if_stage_inst.pc_q.14 119 211 212 sky130_fd_sc_hd__o21ai_0
X212 redirect_valid_i redirect_pc_i.14 stall_i 213 sky130_fd_sc_hd__a21oi_1
X213 1 if_stage_id_reg_inst.if_stage_inst.pc_q.14 rst_n 214 sky130_fd_sc_hd__o21ai_0
X214 212 213 214 215 sky130_fd_sc_hd__a21oi_1
X215 if_stage_id_reg_inst.if_stage_inst.pc_q.13 118 216 sky130_fd_sc_hd__nor2_1
X216 redirect_valid_i 119 216 217 sky130_fd_sc_hd__nor3_1
X217 redirect_valid_i redirect_pc_i.13 217 218 sky130_fd_sc_hd__a21oi_1
X218 1 if_stage_id_reg_inst.if_stage_inst.pc_q.13 rst_n 219 sky130_fd_sc_hd__o21ai_0
X219 1 218 219 220 sky130_fd_sc_hd__a21oi_1
X220 if_stage_id_reg_inst.if_stage_inst.pc_q.11 117 if_stage_id_reg_inst.if_stage_inst.pc_q.12 221 sky130_fd_sc_hd__a21oi_1
X221 redirect_valid_i redirect_pc_i.12 stall_i 222 sky130_fd_sc_hd__a21oi_1
X222 redirect_valid_i 118 221 222 223 sky130_fd_sc_hd__o31a_1
X223 1 if_stage_id_reg_inst.if_stage_inst.pc_q.12 rst_n 224 sky130_fd_sc_hd__o21ai_0
X224 223 224 225 sky130_fd_sc_hd__nor2_1
X225 if_stage_id_reg_inst.if_stage_inst.pc_q.11 117 redirect_valid_i 226 sky130_fd_sc_hd__a21oi_1
X226 if_stage_id_reg_inst.if_stage_inst.pc_q.11 117 226 227 sky130_fd_sc_hd__o21ai_0
X227 redirect_valid_i redirect_pc_i.11 stall_i 228 sky130_fd_sc_hd__a21oi_1
X228 1 if_stage_id_reg_inst.if_stage_inst.pc_q.11 rst_n 229 sky130_fd_sc_hd__o21ai_0
X229 227 228 229 230 sky130_fd_sc_hd__a21oi_1
X230 if_stage_id_reg_inst.if_stage_inst.pc_q.10 116 231 sky130_fd_sc_hd__nor2_1
X231 redirect_valid_i 117 231 232 sky130_fd_sc_hd__nor3_1
X232 redirect_valid_i redirect_pc_i.10 232 233 sky130_fd_sc_hd__a21oi_1
X233 1 if_stage_id_reg_inst.if_stage_inst.pc_q.10 rst_n 234 sky130_fd_sc_hd__o21ai_0
X234 1 233 234 235 sky130_fd_sc_hd__a21oi_1
X235 redirect_valid_i 116 236 sky130_fd_sc_hd__nor2_1
X236 if_stage_id_reg_inst.if_stage_inst.pc_q.9 115 236 237 sky130_fd_sc_hd__o21ai_0
X237 redirect_valid_i redirect_pc_i.9 stall_i 238 sky130_fd_sc_hd__a21oi_1
X238 1 if_stage_id_reg_inst.if_stage_inst.pc_q.9 rst_n 239 sky130_fd_sc_hd__o21ai_0
X239 237 238 239 240 sky130_fd_sc_hd__a21oi_1
X240 redirect_valid_i stall_i 241 sky130_fd_sc_hd__lpflow_isobufsrc_1
X241 1 redirect_valid_i 242 sky130_fd_sc_hd__nand2_1
X242 1 if_stage_id_reg_inst.if_stage_inst.pc_q.7 112 241 if_stage_id_reg_inst.if_stage_inst.pc_q.8 243 sky130_fd_sc_hd__a311oi_1
X243 redirect_pc_i.8 242 rst_n 244 sky130_fd_sc_hd__o21ai_0
X244 115 131 243 244 245 sky130_fd_sc_hd__a211oi_1
X245 stall_i 113 242 if_stage_id_reg_inst.if_stage_inst.pc_q.7 246 sky130_fd_sc_hd__o211ai_1
X246 stall_i if_stage_id_reg_inst.if_stage_inst.pc_q.7 redirect_valid_i 113 247 sky130_fd_sc_hd__nor4_1
X247 redirect_pc_i.7 241 247 248 sky130_fd_sc_hd__a21oi_1
X248 246 248 rst_n 249 sky130_fd_sc_hd__a21boi_0
X249 1 if_stage_id_reg_inst.if_stage_inst.pc_q.5 250 sky130_fd_sc_hd__nand2_1
X250 110 250 242 251 sky130_fd_sc_hd__o21ai_0
X251 redirect_pc_i.6 242 251 if_stage_id_reg_inst.if_stage_inst.pc_q.6 rst_n 252 sky130_fd_sc_hd__o221ai_1
X252 112 131 252 253 sky130_fd_sc_hd__a21oi_1
X253 stall_i 110 242 if_stage_id_reg_inst.if_stage_inst.pc_q.5 254 sky130_fd_sc_hd__o211ai_1
X254 stall_i if_stage_id_reg_inst.if_stage_inst.pc_q.5 redirect_valid_i 110 255 sky130_fd_sc_hd__nor4_1
X255 redirect_pc_i.5 241 255 256 sky130_fd_sc_hd__a21oi_1
X256 254 256 rst_n 257 sky130_fd_sc_hd__a21boi_0
X257 1 if_stage_id_reg_inst.if_stage_inst.pc_q.2 258 sky130_fd_sc_hd__nand2_1
X258 242 258 259 sky130_fd_sc_hd__nand2_1
X259 if_stage_id_reg_inst.if_stage_inst.pc_q.3 241 259 260 sky130_fd_sc_hd__o21a_1
X260 redirect_pc_i.4 242 rst_n 261 sky130_fd_sc_hd__o21ai_0
X261 stall_i redirect_valid_i 110 260 if_stage_id_reg_inst.if_stage_inst.pc_q.4 262 sky130_fd_sc_hd__o32ai_1
X262 261 262 263 sky130_fd_sc_hd__nor2_1
X263 redirect_valid_i redirect_pc_i.3 264 sky130_fd_sc_hd__nand2_1
X264 if_stage_id_reg_inst.if_stage_inst.pc_q.3 259 rst_n 265 sky130_fd_sc_hd__o21ai_0
X265 260 264 265 266 sky130_fd_sc_hd__a21oi_1
X266 redirect_valid_i redirect_pc_i.2 267 sky130_fd_sc_hd__nand2_1
X267 1 if_stage_id_reg_inst.if_stage_inst.pc_q.2 rst_n 268 sky130_fd_sc_hd__o21ai_0
X268 259 267 268 269 sky130_fd_sc_hd__a21oi_1
X269 if_stage_id_reg_inst.if_stage_inst.pc_q.1 241 270 sky130_fd_sc_hd__nor2_1
X270 redirect_pc_i.1 242 rst_n 271 sky130_fd_sc_hd__o21ai_0
X271 270 271 272 sky130_fd_sc_hd__nor2_1
X272 if_stage_id_reg_inst.if_stage_inst.pc_q.0 241 273 sky130_fd_sc_hd__nor2_1
X273 redirect_pc_i.0 242 rst_n 274 sky130_fd_sc_hd__o21ai_0
X274 273 274 275 sky130_fd_sc_hd__nor2_1
X275 stall_i if_stage_id_reg_inst.if_stage_inst.pc_q.30 276 sky130_fd_sc_hd__nor2_1
X276 1 if_stage_id_reg_inst.if_stage_inst.pc_for_instr_q.30 rst_n 277 sky130_fd_sc_hd__o21ai_0
X277 276 277 278 sky130_fd_sc_hd__nor2_1
X278 stall_i if_stage_id_reg_inst.if_stage_inst.pc_q.29 279 sky130_fd_sc_hd__nor2_1
X279 1 if_stage_id_reg_inst.if_stage_inst.pc_for_instr_q.29 rst_n 280 sky130_fd_sc_hd__o21ai_0
X280 279 280 281 sky130_fd_sc_hd__nor2_1
X281 stall_i if_stage_id_reg_inst.if_stage_inst.pc_q.28 282 sky130_fd_sc_hd__nor2_1
X282 1 if_stage_id_reg_inst.if_stage_inst.pc_for_instr_q.28 rst_n 283 sky130_fd_sc_hd__o21ai_0
X283 282 283 284 sky130_fd_sc_hd__nor2_1
X284 stall_i if_stage_id_reg_inst.if_stage_inst.pc_q.27 285 sky130_fd_sc_hd__nor2_1
X285 1 if_stage_id_reg_inst.if_stage_inst.pc_for_instr_q.27 rst_n 286 sky130_fd_sc_hd__o21ai_0
X286 285 286 287 sky130_fd_sc_hd__nor2_1
X287 stall_i if_stage_id_reg_inst.if_stage_inst.pc_q.26 288 sky130_fd_sc_hd__nor2_1
X288 1 if_stage_id_reg_inst.if_stage_inst.pc_for_instr_q.26 rst_n 289 sky130_fd_sc_hd__o21ai_0
X289 288 289 290 sky130_fd_sc_hd__nor2_1
X290 stall_i if_stage_id_reg_inst.if_stage_inst.pc_q.25 291 sky130_fd_sc_hd__nor2_1
X291 1 if_stage_id_reg_inst.if_stage_inst.pc_for_instr_q.25 rst_n 292 sky130_fd_sc_hd__o21ai_0
X292 291 292 293 sky130_fd_sc_hd__nor2_1
X293 stall_i if_stage_id_reg_inst.if_stage_inst.pc_q.24 294 sky130_fd_sc_hd__nor2_1
X294 1 if_stage_id_reg_inst.if_stage_inst.pc_for_instr_q.24 rst_n 295 sky130_fd_sc_hd__o21ai_0
X295 294 295 296 sky130_fd_sc_hd__nor2_1
X296 stall_i if_stage_id_reg_inst.if_stage_inst.pc_q.23 297 sky130_fd_sc_hd__nor2_1
X297 1 if_stage_id_reg_inst.if_stage_inst.pc_for_instr_q.23 rst_n 298 sky130_fd_sc_hd__o21ai_0
X298 297 298 299 sky130_fd_sc_hd__nor2_1
X299 stall_i if_stage_id_reg_inst.if_stage_inst.pc_q.22 300 sky130_fd_sc_hd__nor2_1
X300 1 if_stage_id_reg_inst.if_stage_inst.pc_for_instr_q.22 rst_n 301 sky130_fd_sc_hd__o21ai_0
X301 300 301 302 sky130_fd_sc_hd__nor2_1
X302 stall_i if_stage_id_reg_inst.if_stage_inst.pc_q.21 303 sky130_fd_sc_hd__nor2_1
X303 1 if_stage_id_reg_inst.if_stage_inst.pc_for_instr_q.21 rst_n 304 sky130_fd_sc_hd__o21ai_0
X304 303 304 305 sky130_fd_sc_hd__nor2_1
X305 stall_i if_stage_id_reg_inst.if_stage_inst.pc_q.20 306 sky130_fd_sc_hd__nor2_1
X306 1 if_stage_id_reg_inst.if_stage_inst.pc_for_instr_q.20 rst_n 307 sky130_fd_sc_hd__o21ai_0
X307 306 307 308 sky130_fd_sc_hd__nor2_1
X308 stall_i if_stage_id_reg_inst.if_stage_inst.pc_q.19 309 sky130_fd_sc_hd__nor2_1
X309 1 if_stage_id_reg_inst.if_stage_inst.pc_for_instr_q.19 rst_n 310 sky130_fd_sc_hd__o21ai_0
X310 309 310 311 sky130_fd_sc_hd__nor2_1
X311 stall_i if_stage_id_reg_inst.if_stage_inst.pc_q.18 312 sky130_fd_sc_hd__nor2_1
X312 1 if_stage_id_reg_inst.if_stage_inst.pc_for_instr_q.18 rst_n 313 sky130_fd_sc_hd__o21ai_0
X313 312 313 314 sky130_fd_sc_hd__nor2_1
X314 stall_i if_stage_id_reg_inst.if_stage_inst.pc_q.17 315 sky130_fd_sc_hd__nor2_1
X315 1 if_stage_id_reg_inst.if_stage_inst.pc_for_instr_q.17 rst_n 316 sky130_fd_sc_hd__o21ai_0
X316 315 316 317 sky130_fd_sc_hd__nor2_1
X317 1 if_stage_id_reg_inst.if_stage_inst.pc_for_instr_q.16 rst_n 318 sky130_fd_sc_hd__o21ai_0
X318 1 11 318 319 sky130_fd_sc_hd__a21oi_1
X319 stall_i if_stage_id_reg_inst.if_stage_inst.pc_q.15 320 sky130_fd_sc_hd__nor2_1
X320 1 if_stage_id_reg_inst.if_stage_inst.pc_for_instr_q.15 rst_n 321 sky130_fd_sc_hd__o21ai_0
X321 320 321 322 sky130_fd_sc_hd__nor2_1
X322 stall_i if_stage_id_reg_inst.if_stage_inst.pc_q.14 323 sky130_fd_sc_hd__nor2_1
X323 1 if_stage_id_reg_inst.if_stage_inst.pc_for_instr_q.14 rst_n 324 sky130_fd_sc_hd__o21ai_0
X324 323 324 325 sky130_fd_sc_hd__nor2_1
X325 stall_i if_stage_id_reg_inst.if_stage_inst.pc_q.13 326 sky130_fd_sc_hd__nor2_1
X326 1 if_stage_id_reg_inst.if_stage_inst.pc_for_instr_q.13 rst_n 327 sky130_fd_sc_hd__o21ai_0
X327 326 327 328 sky130_fd_sc_hd__nor2_1
X328 stall_i if_stage_id_reg_inst.if_stage_inst.pc_q.12 329 sky130_fd_sc_hd__nor2_1
X329 1 if_stage_id_reg_inst.if_stage_inst.pc_for_instr_q.12 rst_n 330 sky130_fd_sc_hd__o21ai_0
X330 329 330 331 sky130_fd_sc_hd__nor2_1
X331 stall_i if_stage_id_reg_inst.if_stage_inst.pc_q.11 332 sky130_fd_sc_hd__nor2_1
X332 1 if_stage_id_reg_inst.if_stage_inst.pc_for_instr_q.11 rst_n 333 sky130_fd_sc_hd__o21ai_0
X333 332 333 334 sky130_fd_sc_hd__nor2_1
X334 stall_i if_stage_id_reg_inst.if_stage_inst.pc_q.10 335 sky130_fd_sc_hd__nor2_1
X335 1 if_stage_id_reg_inst.if_stage_inst.pc_for_instr_q.10 rst_n 336 sky130_fd_sc_hd__o21ai_0
X336 335 336 337 sky130_fd_sc_hd__nor2_1
X337 1 if_stage_id_reg_inst.if_stage_inst.pc_for_instr_q.9 rst_n 338 sky130_fd_sc_hd__o21ai_0
X338 1 10 338 339 sky130_fd_sc_hd__a21oi_1